version 3
run OvertakeNoGui-273-20241104-10:05:17-91941
attr configname OvertakeNoGui
attr datetime 20241104-10:05:17
attr datetimef 20241104-100517
attr experiment OvertakeNoGui
attr inifile omnetpp.ini
attr iterationvars "$leaderHeadway=1.2, $leaderSpeed=50, $controller=0, $pCSpeed=58, $pDeltaC=470"
attr iterationvarsd leaderHeadway=1.2/leaderSpeed=50/controller=0/pCSpeed=58/pDeltaC=470
attr iterationvarsf leaderHeadway=1.2,leaderSpeed=50,controller=0,pCSpeed=58,pDeltaC=470-
attr measurement "$leaderHeadway=1.2, $leaderSpeed=50, $controller=0, $pCSpeed=58, $pDeltaC=470"
attr network Overtake
attr processid 91941
attr repetition 0
attr replication #0
attr resultdir results
attr runnumber 273
attr seedset 0
itervar controller 0
itervar leaderHeadway 1.2
itervar leaderSpeed 50
itervar pCSpeed 58
itervar pDeltaC 470
config image-path ../../../../veins/images;../../images
config *.manager.command "\"sumo\""
config *.manager.ignoreGuiCommands true
config *.node[*].scenario_type "\"OvertakeScenario\""
config output-vector-file results/OvertakeNoGui_58_470_0.vec
config output-scalar-file results/OvertakeNoGui_58_470_0.sca
config cmdenv-express-mode false
config cmdenv-autoflush true
config cmdenv-status-frequency 10s
config num-rngs 6
config cmdenv-output-file log.txt
config cmdenv-redirect-output true
config network Overtake
config debug-on-errors true
config print-undisposed true
config *.playgroundSizeX 65000m
config *.playgroundSizeY 25000m
config *.playgroundSizeZ 50m
config sim-time-limit "360 s"
config *.annotations.draw false
config *.obstacles.debug false
config *.world.useTorus false
config *.world.use2D false
config *.manager.updateInterval 0.01s
config *.manager.host "\"localhost\""
config *.manager.moduleType "\"vtypeauto=org.car2x.plexe.PlatoonCar vtypehuman=0\""
config *.manager.moduleName "\"vtypeauto=node vtypehuman=0\""
config *.manager.moduleDisplayString "\"\""
config *.manager.autoShutdown true
config *.manager.margin 25
config *.manager.order -1
config *.connectionManager.sendDirect true
config *.connectionManager.maxInterfDist 2600m
config *.connectionManager.drawMaxIntfDist false
config *.**.nic.mac1609_4.useServiceChannel false
config *.**.nic.mac1609_4.txPower 100mW
config *.**.nic.mac1609_4.bitrate 6Mbps
config *.**.nic.mac1609_4.useAcks true
config *.**.nic.mac1609_4.ackErrorRate 0.0
config *.**.nic.mac1609_4.frameErrorRate 0.0
config *.**.nic.phy80211p.minPowerLevel -94dBm
config *.**.nic.phy80211p.maxTXPower 100mW
config *.**.nic.phy80211p.useNoiseFloor true
config *.**.nic.phy80211p.noiseFloor -95dBm
config *.**.nic.phy80211p.decider "xmldoc(\"config.xml\")"
config *.**.nic.phy80211p.analogueModels "xmldoc(\"config.xml\")"
config *.**.nic.phy80211p.usePropagationDelay true
config *.node[*].mobility.x 0
config *.node[*].mobility.y 0
config *.node[*].mobility.z 1.895
config *.shockwave[*].mobility.x 0
config *.shockwave[*].mobility.y 0
config *.shockwave[*].mobility.z 1.895
config seed-set 0
config **.seed 0
config *.node[*].prot.rng-0 2
config *.node[*].appl.rng-0 3
config *.node[*].scenario.rng-0 4
config *.manager.configFile "\"./sumocfg/overtake.sumo.cfg\""
config *.manager.launchConfig "xmldoc(\"./sumocfg/overtake.launchd.xml\")"
config *.node[*].helper_type "\"PositionHelper\""
config *.node[*].scenario.caccC1 0.5
config *.node[*].scenario.caccXi 1
config *.node[*].scenario.caccOmegaN "0.2 Hz"
config *.node[*].scenario.caccSpacing "5 m"
config *.node[*].scenario.engineTau "0.5 s"
config *.node[*].scenario.ploegH "0.5 s"
config *.node[*].scenario.ploegKp 0.2
config *.node[*].scenario.ploegKd 0.7
config *.node[*].scenario.useRealisticEngine false
config *.node[*].scenario.targetController "\"CACC\""
config *.node[*].scenario.accHeadway "0.1 s"
config *.node[*].scenario.leaderHeadway "1.2 s"
config *.node[*].scenario.leaderSpeed "50 kmph"
config *.node[*].appl_type "\"OvertakeApp\""
config *.node[*].appl.*.scalar-recording true
config *.node[*].appl.*.vector-recording true
config *.node[*].appl.overtakeManeuver "\"OvertakeManeuver\""
config *.node[*].protocol_type "\"SimplePlatooningBeaconing\""
config *.node[*].prot.*.scalar-recording true
config *.node[*].prot.*.vector-recording true
config *.node[*].prot.beaconingInterval "0.1 s"
config *.node[*].prot.priority 4
config *.node[*].prot.packetSize 200
config *.node[*].prot.useControllerAcceleration true
config **.traffic_type "\"OvertakeTrafficManager\""
config **.traffic.platoonInsertTime "0.1 s"
config **.traffic.platooningVType "\"vtypeauto\""
config **.numericController 0
config **.traffic.platoonInsertDistance 5m
config **.traffic.platoonInsertHeadway 0s
config **.traffic.platoonLeaderHeadway 1.2s
config **.traffic.platoonASpeed 50kmph
config **.traffic.platoonBSpeed 100kmph
config **.traffic.platoonCSpeed 58kmph
config **.traffic.platoonSizeA 2
config **.traffic.platoonSizeB 1
config **.traffic.platoonSizeC 1
config **.traffic.initialPositionDeltaA 150
config **.traffic.initialPositionDeltaB 50
config **.traffic.initialPositionDeltaC 470
config **.traffic.controller "\"CACC\""
config **.scalar-recording true
config **.vector-recording true

vector 0 Overtake.node[0].mobility posx ETV
vector 1 Overtake.node[0].mobility posy ETV
vector 2 Overtake.node[1].mobility posx ETV
vector 3 Overtake.node[1].mobility posy ETV
vector 4 Overtake.node[2].mobility posx ETV
vector 5 Overtake.node[2].mobility posy ETV
vector 6 Overtake.node[3].mobility posx ETV
vector 7 Overtake.node[3].mobility posy ETV
vector 8 Overtake.node[0].mobility speed ETV
vector 9 Overtake.node[1].mobility speed ETV
vector 10 Overtake.node[2].mobility speed ETV
vector 11 Overtake.node[3].mobility speed ETV
vector 12 Overtake.node[0].mobility acceleration ETV
vector 13 Overtake.node[0].mobility co2emission ETV
vector 14 Overtake.node[1].mobility acceleration ETV
vector 15 Overtake.node[1].mobility co2emission ETV
vector 16 Overtake.node[2].mobility acceleration ETV
vector 17 Overtake.node[2].mobility co2emission ETV
vector 18 Overtake.node[3].mobility acceleration ETV
vector 19 Overtake.node[3].mobility co2emission ETV
vector 20 Overtake.node[0].appl distance ETV
vector 21 Overtake.node[0].appl relativeSpeed ETV
vector 22 Overtake.node[0].appl nodeId ETV
vector 23 Overtake.node[0].appl acceleration ETV
vector 24 Overtake.node[0].appl controllerAcceleration ETV
vector 25 Overtake.node[0].appl speed ETV
vector 26 Overtake.node[0].appl posx ETV
vector 27 Overtake.node[0].appl posy ETV
vector 28 Overtake.node[1].appl distance ETV
vector 29 Overtake.node[1].appl relativeSpeed ETV
vector 30 Overtake.node[1].appl nodeId ETV
vector 31 Overtake.node[1].appl acceleration ETV
vector 32 Overtake.node[1].appl controllerAcceleration ETV
vector 33 Overtake.node[1].appl speed ETV
vector 34 Overtake.node[1].appl posx ETV
vector 35 Overtake.node[1].appl posy ETV
vector 36 Overtake.node[2].appl distance ETV
vector 37 Overtake.node[2].appl relativeSpeed ETV
vector 38 Overtake.node[2].appl nodeId ETV
vector 39 Overtake.node[2].appl acceleration ETV
vector 40 Overtake.node[2].appl controllerAcceleration ETV
vector 41 Overtake.node[2].appl speed ETV
vector 42 Overtake.node[2].appl posx ETV
vector 43 Overtake.node[2].appl posy ETV
vector 44 Overtake.node[3].appl distance ETV
vector 45 Overtake.node[3].appl relativeSpeed ETV
vector 46 Overtake.node[3].appl nodeId ETV
vector 47 Overtake.node[3].appl acceleration ETV
vector 48 Overtake.node[3].appl controllerAcceleration ETV
vector 49 Overtake.node[3].appl speed ETV
vector 50 Overtake.node[3].appl posx ETV
vector 51 Overtake.node[3].appl posy ETV
vector 52 Overtake.node[1].prot leaderDelay ETV
vector 53 Overtake.node[1].prot leaderDelayId ETV
vector 54 Overtake.node[1].prot frontDelay ETV
vector 55 Overtake.node[1].prot frontDelayId ETV
vector 56 Overtake.node[0].prot nodeId ETV
vector 57 Overtake.node[0].prot busyTime ETV
vector 58 Overtake.node[0].prot collisions ETV
vector 59 Overtake.node[1].prot nodeId ETV
vector 60 Overtake.node[1].prot busyTime ETV
vector 61 Overtake.node[1].prot collisions ETV
vector 62 Overtake.node[2].prot nodeId ETV
vector 63 Overtake.node[2].prot busyTime ETV
vector 64 Overtake.node[2].prot collisions ETV
vector 65 Overtake.node[3].prot nodeId ETV
vector 66 Overtake.node[3].prot busyTime ETV
vector 67 Overtake.node[3].prot collisions ETV
48	26	0.21	0.00109259
48	176	0.31	0.00106709
48	326	0.41	0.00102704
48	476	0.51	0.000975759
48	626	0.61	0.00091619
48	776	0.71	0.000850891
48	926	0.81	0.000782061
48	1076	0.91	0.00071157
48	1230	1.01	0.00064098
48	1381	1.11	0.000571575
48	1532	1.21	0.000504387
48	1683	1.31	0.000440223
48	2099	1.41	-0.171459
48	2249	1.51	-0.171459
48	2399	1.61	-0.171459
48	2549	1.71	-0.171459
48	2699	1.81	-0.171459
48	2849	1.91	-0.171459
48	3003	2.01	-0.171459
48	3153	2.11	-0.171459
48	3303	2.21	-0.171459
48	3453	2.31	-0.171459
48	3603	2.41	-0.171459
48	3753	2.51	-0.171459
48	3903	2.61	-0.171459
48	4053	2.71	-0.171459
48	4203	2.81	-0.171459
48	4353	2.91	-0.171459
48	4507	3.01	-0.171459
48	4657	3.11	-0.171459
48	4807	3.21	-0.171459
48	4957	3.31	-0.171459
48	5107	3.41	-0.171459
48	5257	3.51	-0.171459
48	5407	3.61	-0.171459
48	5557	3.71	-0.171459
48	5707	3.81	-0.171459
48	5857	3.91	-0.171459
48	6011	4.01	-0.171459
48	6161	4.11	-0.171459
48	6311	4.21	-0.171459
48	6461	4.31	-0.171459
48	6611	4.41	-0.171459
48	6761	4.51	-0.171459
48	6911	4.61	-0.171459
48	7061	4.71	-0.171459
48	7211	4.81	-0.171459
48	7361	4.91	-0.171459
48	7515	5.01	-0.171459
48	7665	5.11	-0.171459
48	7815	5.21	-0.171459
48	7965	5.31	-0.171459
48	8115	5.41	-0.171459
48	8265	5.51	-0.171459
48	8415	5.61	-0.171459
48	8565	5.71	-0.171459
48	8715	5.81	-0.171459
48	8865	5.91	-0.171459
48	9019	6.01	-0.171459
48	9169	6.11	-0.171459
48	9319	6.21	-0.171459
48	9469	6.31	-0.171459
48	9619	6.41	-0.171459
48	9769	6.51	-0.171459
48	9919	6.61	-0.171459
48	10069	6.71	-0.171459
48	10219	6.81	-0.171459
48	10369	6.91	-0.171459
48	10523	7.01	-0.171459
48	10673	7.11	-0.171459
48	10823	7.21	-0.171459
48	10973	7.31	-0.171459
48	11123	7.41	-0.171459
48	11273	7.51	-0.171459
48	11423	7.61	-0.171459
48	11573	7.71	-0.171459
48	11723	7.81	-0.171459
48	11873	7.91	-0.171459
48	12027	8.01	-0.171459
48	12177	8.11	-0.171459
48	12327	8.21	-0.171459
48	12477	8.31	-0.171459
48	12627	8.41	-0.171459
48	12777	8.51	-0.171459
48	12927	8.61	-0.171459
48	13077	8.71	-0.171459
48	13227	8.81	-0.171459
48	13377	8.91	-0.171459
48	13531	9.01	-0.171459
48	13681	9.11	-0.171459
48	13831	9.21	-0.171459
48	13981	9.31	-0.171459
48	14131	9.41	-0.171459
48	14281	9.51	-0.171459
48	14431	9.61	-0.171459
48	14581	9.71	-0.171459
48	14731	9.81	-0.171459
48	14881	9.91	-0.171459
48	15035	10.01	-0.171459
48	15185	10.11	-0.171459
48	15335	10.21	-0.171459
48	15485	10.31	-0.171459
48	15635	10.41	-0.171459
48	15785	10.51	-0.171459
48	15935	10.61	-0.171459
48	16085	10.71	-0.171459
48	16235	10.81	-0.171459
48	16385	10.91	-0.171459
48	16539	11.01	-0.171459
48	16689	11.11	-0.171459
48	16839	11.21	-0.171459
48	16989	11.31	-0.171459
48	17140	11.41	-0.171459
48	17290	11.51	-0.171459
48	17440	11.61	-0.171459
48	17590	11.71	-0.171459
48	17740	11.81	-0.171459
48	17891	11.91	1.5
48	18045	12.01	1.5
48	18195	12.11	1.5
48	18345	12.21	1.5
48	18495	12.31	1.5
48	18645	12.41	1.42969
48	18795	12.51	1.33064
48	18945	12.61	1.22551
48	19095	12.71	1.11729
48	19245	12.81	1.00848
48	19395	12.91	0.901119
48	19549	13.01	0.796888
48	19699	13.11	0.697088
48	19849	13.21	0.602716
48	19999	13.31	0.514487
48	20149	13.41	0.43288
48	20299	13.51	0.358171
48	20449	13.61	0.290459
48	20599	13.71	0.229702
48	20749	13.81	0.17574
48	20899	13.91	0.128321
48	21053	14.01	0.0871185
48	21203	14.11	0.0517559
48	21353	14.21	0.0218179
48	21503	14.31	-0.00313291
48	21653	14.41	-0.0235451
48	21803	14.51	-0.0398679
48	21953	14.61	-0.0525433
48	22103	14.71	-0.061999
48	22253	14.81	-0.0686441
48	22403	14.91	-0.0728641
48	22557	15.01	-0.0750191
48	22707	15.11	-0.0754415
48	22857	15.21	-0.0744348
48	23007	15.31	-0.072274
48	23157	15.41	-0.069205
48	23307	15.51	-0.0654462
48	23457	15.61	-0.0611888
48	23607	15.71	-0.0565987
48	23757	15.81	-0.0518182
48	23907	15.91	-0.046967
48	24061	16.01	-0.042145
48	24211	16.11	-0.0374334
48	24361	16.21	-0.0328968
48	24511	16.31	-0.0285852
48	24661	16.41	-0.0245355
48	24811	16.51	-0.0207732
48	24961	16.61	-0.0173143
48	25111	16.71	-0.0141662
48	25261	16.81	-0.0113296
48	25411	16.91	-0.00879938
48	25565	17.01	-0.0065659
48	25715	17.11	-0.00461591
48	25865	17.21	-0.00293344
48	26015	17.31	-0.00150062
48	26165	17.41	-0.000298292
48	26315	17.51	0.000693386
48	26465	17.61	0.00149447
48	26615	17.71	0.00212483
48	26765	17.81	0.00260384
48	26915	17.91	0.00295009
48	27069	18.01	0.00318123
48	27219	18.11	0.00331378
48	27369	18.21	0.00336308
48	27519	18.31	0.00334321
48	27669	18.41	0.00326694
48	27819	18.51	0.00314578
48	27969	18.61	0.00298996
48	28119	18.71	0.00280851
48	28269	18.81	0.00260929
48	28419	18.91	0.00239905
48	28573	19.01	0.00218356
48	28723	19.11	0.00196761
48	28873	19.21	0.00175517
48	29023	19.31	0.00154942
48	29173	19.41	0.00135283
48	29323	19.51	0.0011673
48	29473	19.61	0.000994169
48	29623	19.71	0.000834307
48	29773	19.81	0.000688199
48	29923	19.91	0.000555997
48	30077	20.01	0.000437573
48	30227	20.11	0.000332576
48	30377	20.21	0.000240477
48	30527	20.31	0.00016061
48	30677	20.41	9.22107e-05
48	30827	20.51	3.44456e-05
48	30977	20.61	-1.35596e-05
48	31127	20.71	-5.26975e-05
48	31277	20.81	-8.38589e-05
48	31427	20.91	-0.000107918
48	31581	21.01	-0.000125719
48	31731	21.11	-0.000138068
48	31881	21.21	-0.000145721
48	32031	21.31	-0.000149386
48	32181	21.41	-0.000149714
48	32331	21.51	-0.000147297
48	32481	21.61	-0.000142672
48	32631	21.71	-0.00013632
48	32781	21.81	-0.000128663
48	32931	21.91	-0.000120075
48	33085	22.01	-0.000110875
48	33235	22.11	-0.00010134
48	33385	22.21	-9.17001e-05
48	33535	22.31	-8.21474e-05
48	33685	22.41	-7.28374e-05
48	33835	22.51	-6.38936e-05
48	33985	22.61	-5.54105e-05
48	34135	22.71	-4.74576e-05
48	34285	22.81	-4.00823e-05
48	34435	22.91	-3.33131e-05
48	34589	23.01	-2.71624e-05
48	34739	23.11	-2.16296e-05
48	34889	23.21	-1.67028e-05
48	35039	23.31	-1.23615e-05
48	35189	23.41	-8.57843e-06
48	35339	23.51	-5.32113e-06
48	35489	23.61	-2.55357e-06
48	35639	23.71	-2.37408e-07
48	35789	23.81	1.66691e-06
48	35939	23.91	3.19922e-06
48	36093	24.01	4.39886e-06
48	36243	24.11	5.30409e-06
48	36393	24.21	5.95156e-06
48	36543	24.31	6.37596e-06
48	36693	24.41	6.60976e-06
48	36843	24.51	6.68301e-06
48	36993	24.61	6.62323e-06
48	37143	24.71	6.4554e-06
48	37293	24.81	6.20194e-06
48	37443	24.91	5.88277e-06
48	37597	25.01	5.51543e-06
48	37747	25.11	5.11516e-06
48	37897	25.21	4.69505e-06
48	38047	25.31	4.26621e-06
48	38197	25.41	3.83789e-06
48	38347	25.51	3.41769e-06
48	38497	25.61	3.01167e-06
48	38647	25.71	2.62458e-06
48	38797	25.81	2.25996e-06
48	38947	25.91	1.92031e-06
48	39101	26.01	1.60723e-06
48	39251	26.11	1.32157e-06
48	39401	26.21	1.06353e-06
48	39551	26.31	8.32769e-07
48	39701	26.41	6.28529e-07
48	39851	26.51	4.49708e-07
48	40001	26.61	2.94947e-07
48	40151	26.71	1.62698e-07
48	40301	26.81	5.12902e-08
48	40451	26.91	-4.10228e-08
48	40605	27.01	-1.16016e-07
48	40755	27.11	-1.75456e-07
48	40905	27.21	-2.2107e-07
48	41055	27.31	-2.54525e-07
48	41205	27.41	-2.77404e-07
48	41355	27.51	-2.91198e-07
48	41505	27.61	-2.9729e-07
48	41655	27.71	-2.96956e-07
48	41805	27.81	-2.91356e-07
48	41955	27.91	-2.81536e-07
48	42109	28.01	-2.68431e-07
48	42259	28.11	-2.52865e-07
48	42409	28.21	-2.35561e-07
48	42559	28.31	-2.1714e-07
48	42709	28.41	-1.98134e-07
48	42859	28.51	-1.78989e-07
48	43009	28.61	-1.60073e-07
48	43159	28.71	-1.41684e-07
48	43309	28.81	-1.24058e-07
48	43459	28.91	-1.07373e-07
48	43613	29.01	-9.17591e-08
48	43763	29.11	-7.73053e-08
48	43913	29.21	-6.40615e-08
48	44063	29.31	-5.20476e-08
48	44213	29.41	-4.12587e-08
48	44363	29.51	-3.16682e-08
48	44513	29.61	-2.32326e-08
48	44663	29.71	-1.58956e-08
48	44813	29.81	-9.59162e-09
48	44963	29.91	-4.24834e-09
48	45117	30.01	2.11386e-10
48	45267	30.11	3.86606e-09
48	45417	30.21	6.79492e-09
48	45567	30.31	9.07576e-09
48	45717	30.41	1.07839e-08
48	45867	30.51	1.19915e-08
48	46017	30.61	1.27674e-08
48	46167	30.71	1.31745e-08
48	46317	30.81	1.32726e-08
48	46467	30.91	1.31148e-08
48	46621	31.01	1.275e-08
48	46771	31.11	1.22224e-08
48	46921	31.21	1.15701e-08
48	47071	31.31	1.08276e-08
48	47221	31.41	1.0024e-08
48	47371	31.51	9.18519e-09
48	47521	31.61	8.33253e-09
48	47671	31.71	7.48344e-09
48	47821	31.81	6.65246e-09
48	47971	31.91	5.85167e-09
48	48125	32.01	5.08962e-09
48	48275	32.11	4.37339e-09
48	48425	32.21	3.70726e-09
48	48575	32.31	3.09441e-09
48	48725	32.41	2.53628e-09
48	48875	32.51	2.03286e-09
48	49025	32.61	1.58309e-09
48	49175	32.71	1.18625e-09
48	49325	32.81	8.39151e-10
48	49475	32.91	5.39302e-10
48	49629	33.01	2.83862e-10
48	49779	33.11	6.89226e-11
48	49929	33.21	-1.08358e-10
48	50079	33.31	-2.52243e-10
48	50229	33.41	-3.65574e-10
48	50379	33.51	-4.51905e-10
48	50529	33.61	-5.14788e-10
47	26	0.21	0.000179096
47	176	0.31	0.000340852
47	326	0.41	0.000467435
47	476	0.51	0.000562893
47	626	0.61	0.000631106
47	776	0.71	0.000675745
47	926	0.81	0.000700245
47	1076	0.91	0.000707784
47	1230	1.01	0.000701273
47	1381	1.11	0.000683354
47	1532	1.21	0.000656398
47	1683	1.31	0.000622512
47	2099	1.41	-0.0125034
47	2249	1.51	-0.0410601
47	2399	1.61	-0.0644864
47	2549	1.71	-0.0837043
47	2699	1.81	-0.0994695
47	2849	1.91	-0.112403
47	3003	2.01	-0.123012
47	3153	2.11	-0.131716
47	3303	2.21	-0.138856
47	3453	2.31	-0.144713
47	3603	2.41	-0.149518
47	3753	2.51	-0.15346
47	3903	2.61	-0.156693
47	4053	2.71	-0.159346
47	4203	2.81	-0.161522
47	4353	2.91	-0.163307
47	4507	3.01	-0.164772
47	4657	3.11	-0.165973
47	4807	3.21	-0.166959
47	4957	3.31	-0.167767
47	5107	3.41	-0.16843
47	5257	3.51	-0.168974
47	5407	3.61	-0.169421
47	5557	3.71	-0.169787
47	5707	3.81	-0.170087
47	5857	3.91	-0.170334
47	6011	4.01	-0.170536
47	6161	4.11	-0.170702
47	6311	4.21	-0.170838
47	6461	4.31	-0.170949
47	6611	4.41	-0.171041
47	6761	4.51	-0.171116
47	6911	4.61	-0.171178
47	7061	4.71	-0.171228
47	7211	4.81	-0.17127
47	7361	4.91	-0.171304
47	7515	5.01	-0.171332
47	7665	5.11	-0.171354
47	7815	5.21	-0.171373
47	7965	5.31	-0.171389
47	8115	5.41	-0.171401
47	8265	5.51	-0.171412
47	8415	5.61	-0.17142
47	8565	5.71	-0.171427
47	8715	5.81	-0.171433
47	8865	5.91	-0.171438
47	9019	6.01	-0.171441
47	9169	6.11	-0.171445
47	9319	6.21	-0.171447
47	9469	6.31	-0.171449
47	9619	6.41	-0.171451
47	9769	6.51	-0.171452
47	9919	6.61	-0.171454
47	10069	6.71	-0.171455
47	10219	6.81	-0.171455
47	10369	6.91	-0.171456
47	10523	7.01	-0.171457
47	10673	7.11	-0.171457
47	10823	7.21	-0.171457
47	10973	7.31	-0.171458
47	11123	7.41	-0.171458
47	11273	7.51	-0.171458
47	11423	7.61	-0.171458
47	11573	7.71	-0.171458
47	11723	7.81	-0.171459
47	11873	7.91	-0.171459
47	12027	8.01	-0.171459
47	12177	8.11	-0.171459
47	12327	8.21	-0.171459
47	12477	8.31	-0.171459
47	12627	8.41	-0.171459
47	12777	8.51	-0.171459
47	12927	8.61	-0.171459
47	13077	8.71	-0.171459
47	13227	8.81	-0.171459
47	13377	8.91	-0.171459
47	13531	9.01	-0.171459
47	13681	9.11	-0.171459
47	13831	9.21	-0.171459
47	13981	9.31	-0.171459
47	14131	9.41	-0.171459
47	14281	9.51	-0.171459
47	14431	9.61	-0.171459
47	14581	9.71	-0.171459
47	14731	9.81	-0.171459
47	14881	9.91	-0.171459
47	15035	10.01	-0.171459
47	15185	10.11	-0.171459
47	15335	10.21	-0.171459
47	15485	10.31	-0.171459
47	15635	10.41	-0.171459
47	15785	10.51	-0.171459
47	15935	10.61	-0.171459
47	16085	10.71	-0.171459
47	16235	10.81	-0.171459
47	16385	10.91	-0.171459
47	16539	11.01	-0.171459
47	16689	11.11	-0.171459
47	16839	11.21	-0.171459
47	16989	11.31	-0.171459
47	17140	11.41	-0.171459
47	17290	11.51	-0.171459
47	17440	11.61	-0.171459
47	17590	11.71	-0.171459
47	17740	11.81	-0.171459
47	17891	11.91	0.0448944
47	18045	12.01	0.306307
47	18195	12.11	0.520756
47	18345	12.21	0.696679
47	18495	12.31	0.840997
47	18645	12.41	0.953683
47	18795	12.51	1.02923
47	18945	12.61	1.07275
47	19095	12.71	1.08921
47	19245	12.81	1.08318
47	19395	12.91	1.0588
47	19549	13.01	1.01981
47	19699	13.11	0.969535
47	19849	13.21	0.910902
47	19999	13.31	0.846465
47	20149	13.41	0.778422
47	20299	13.51	0.708642
47	20449	13.61	0.638687
47	20599	13.71	0.569845
47	20749	13.81	0.50315
47	20899	13.91	0.439412
47	21053	14.01	0.379243
47	21203	14.11	0.323082
47	21353	14.21	0.271215
47	21503	14.31	0.223802
47	21653	14.41	0.180893
47	21803	14.51	0.142448
47	21953	14.61	0.108355
47	22103	14.71	0.078443
47	22253	14.81	0.0524979
47	22403	14.91	0.0302724
47	22557	15.01	0.0114967
47	22707	15.11	-0.00411206
47	22857	15.21	-0.0168429
47	23007	15.31	-0.0269846
47	23157	15.41	-0.0348203
47	23307	15.51	-0.0406238
47	23457	15.61	-0.044656
47	23607	15.71	-0.0471629
47	23757	15.81	-0.0483736
47	23907	15.91	-0.0484991
47	24061	16.01	-0.0477322
47	24211	16.11	-0.0462469
47	24361	16.21	-0.044199
47	24511	16.31	-0.0417263
47	24661	16.41	-0.0389494
47	24811	16.51	-0.0359728
47	24961	16.61	-0.0328857
47	25111	16.71	-0.0297634
47	25261	16.81	-0.0266682
47	25411	16.91	-0.0236507
47	25565	17.01	-0.0207512
47	25715	17.11	-0.0180003
47	25865	17.21	-0.0154208
47	26015	17.31	-0.0130281
47	26165	17.41	-0.0108316
47	26315	17.51	-0.00883546
47	26465	17.61	-0.00703944
47	26615	17.71	-0.00543981
47	26765	17.81	-0.00403
47	26915	17.91	-0.00280117
47	27069	18.01	-0.00174287
47	27219	18.11	-0.000843433
47	27369	18.21	-9.04534e-05
47	27519	18.31	0.000528875
47	27669	18.41	0.00102745
47	27819	18.51	0.00141803
47	27969	18.61	0.00171301
47	28119	18.71	0.00192427
47	28269	18.81	0.00206307
47	28419	18.91	0.00213992
47	28573	19.01	0.00216459
47	28723	19.11	0.002146
47	28873	19.21	0.00209226
47	29023	19.31	0.00201065
47	29173	19.41	0.00190764
47	29323	19.51	0.00178892
47	29473	19.61	0.00165944
47	29623	19.71	0.00152346
47	29773	19.81	0.00138458
47	29923	19.91	0.00124582
47	30077	20.01	0.00110965
47	30227	20.11	0.000978031
47	30377	20.21	0.000852519
47	30527	20.31	0.000734265
47	30677	20.41	0.000624085
47	30827	20.51	0.000522506
47	30977	20.61	0.000429805
47	31127	20.71	0.000346048
47	31277	20.81	0.000271132
47	31427	20.91	0.000204812
47	31581	21.01	0.000146732
47	31731	21.11	9.64553e-05
47	31881	21.21	5.34807e-05
47	32031	21.31	1.72673e-05
47	32181	21.41	-1.27501e-05
47	32331	21.51	-3.7146e-05
47	32481	21.61	-5.6493e-05
47	32631	21.71	-7.1351e-05
47	32781	21.81	-8.226e-05
47	32931	21.91	-8.97337e-05
47	33085	22.01	-9.42554e-05
47	33235	22.11	-9.62741e-05
47	33385	22.21	-9.62035e-05
47	33535	22.31	-9.442e-05
47	33685	22.41	-9.12634e-05
47	33835	22.51	-8.70371e-05
47	33985	22.61	-8.20089e-05
47	34135	22.71	-7.64131e-05
47	34285	22.81	-7.04521e-05
47	34435	22.91	-6.42984e-05
47	34589	23.01	-5.8097e-05
47	34739	23.11	-5.19676e-05
47	34889	23.21	-4.60073e-05
47	35039	23.31	-4.02926e-05
47	35189	23.41	-3.48819e-05
47	35339	23.51	-2.98176e-05
47	35489	23.61	-2.51283e-05
47	35639	23.71	-2.08307e-05
47	35789	23.81	-1.69316e-05
47	35939	23.91	-1.34293e-05
47	36093	24.01	-1.03153e-05
47	36243	24.11	-7.57572e-06
47	36393	24.21	-5.19245e-06
47	36543	24.31	-3.14421e-06
47	36693	24.41	-1.40754e-06
47	36843	24.51	4.23814e-08
47	36993	24.61	1.23106e-06
47	37143	24.71	2.18411e-06
47	37293	24.81	2.92677e-06
47	37443	24.91	3.48351e-06
47	37597	25.01	3.87776e-06
47	37747	25.11	4.13163e-06
47	37897	25.21	4.26578e-06
47	38047	25.31	4.29932e-06
47	38197	25.41	4.24973e-06
47	38347	25.51	4.13282e-06
47	38497	25.61	3.96279e-06
47	38647	25.71	3.75223e-06
47	38797	25.81	3.5122e-06
47	38947	25.91	3.25229e-06
47	39101	26.01	2.98075e-06
47	39251	26.11	2.70453e-06
47	39401	26.21	2.42942e-06
47	39551	26.31	2.16016e-06
47	39701	26.41	1.90053e-06
47	39851	26.51	1.65346e-06
47	40001	26.61	1.42111e-06
47	40151	26.71	1.20502e-06
47	40301	26.81	1.00614e-06
47	40451	26.91	8.24941e-07
47	40605	27.01	6.61498e-07
47	40755	27.11	5.15554e-07
47	40905	27.21	3.86582e-07
47	41055	27.31	2.73846e-07
47	41205	27.41	1.76451e-07
47	41355	27.51	9.33895e-08
47	41505	27.61	2.35747e-08
47	41655	27.71	-3.41206e-08
47	41805	27.81	-8.08392e-08
47	41955	27.91	-1.17714e-07
47	42109	28.01	-1.45853e-07
47	42259	28.11	-1.66322e-07
47	42409	28.21	-1.8013e-07
47	42559	28.31	-1.88226e-07
47	42709	28.41	-1.91492e-07
47	42859	28.51	-1.90737e-07
47	43009	28.61	-1.86696e-07
47	43159	28.71	-1.80033e-07
47	43309	28.81	-1.71337e-07
47	43459	28.91	-1.61131e-07
47	43613	29.01	-1.49868e-07
47	43763	29.11	-1.37941e-07
47	43913	29.21	-1.25682e-07
47	44063	29.31	-1.13371e-07
47	44213	29.41	-1.01239e-07
47	44363	29.51	-8.94705e-08
47	44513	29.61	-7.82116e-08
47	44663	29.71	-6.75723e-08
47	44813	29.81	-5.76328e-08
47	44963	29.91	-4.84452e-08
47	45117	30.01	-4.00387e-08
47	45267	30.11	-3.24246e-08
47	45417	30.21	-2.55962e-08
47	45567	30.31	-1.95357e-08
47	45717	30.41	-1.42141e-08
47	45867	30.51	-9.59304e-09
47	46017	30.61	-5.62999e-09
47	46167	30.71	-2.27836e-09
47	46317	30.81	5.11591e-10
47	46467	30.91	2.79137e-09
47	46621	31.01	4.61178e-09
47	46771	31.11	6.0222e-09
47	46921	31.21	7.07132e-09
47	47071	31.31	7.80531e-09
47	47221	31.41	8.26716e-09
47	47371	31.51	8.49809e-09
47	47521	31.61	8.53468e-09
47	47671	31.71	8.4114e-09
47	47821	31.81	8.15952e-09
47	47971	31.91	7.80673e-09
47	48125	32.01	7.37757e-09
47	48275	32.11	6.89298e-09
47	48425	32.21	6.37179e-09
47	48575	32.31	5.83e-09
47	48725	32.41	5.28075e-09
47	48875	32.51	4.73577e-09
47	49025	32.61	4.20322e-09
47	49175	32.71	3.69162e-09
47	49325	32.81	3.20561e-09
47	49475	32.91	2.74945e-09
47	49629	33.01	2.32525e-09
47	49779	33.11	1.93623e-09
47	49929	33.21	1.58273e-09
47	50079	33.31	1.26477e-09
47	50229	33.41	9.79838e-10
47	50379	33.51	7.29372e-10
47	50529	33.61	5.1017e-10
51	26	0.21	1.6
51	176	0.31	1.6
51	326	0.41	1.6
51	476	0.51	1.6
51	626	0.61	1.6
51	776	0.71	1.6
51	926	0.81	1.6
51	1076	0.91	1.6
51	1230	1.01	1.6
51	1381	1.11	1.6
51	1532	1.21	1.6
51	1683	1.31	1.6
51	2099	1.41	1.6
51	2249	1.51	1.6
51	2399	1.61	1.6
51	2549	1.71	1.6
51	2699	1.81	1.6
51	2849	1.91	1.6
51	3003	2.01	1.6
51	3153	2.11	1.6
51	3303	2.21	1.6
51	3453	2.31	1.6
51	3603	2.41	1.6
51	3753	2.51	1.6
51	3903	2.61	1.6
51	4053	2.71	1.6
51	4203	2.81	1.6
51	4353	2.91	1.6
51	4507	3.01	1.6
51	4657	3.11	1.6
51	4807	3.21	1.6
51	4957	3.31	1.6
51	5107	3.41	1.6
51	5257	3.51	1.6
51	5407	3.61	1.6
51	5557	3.71	1.6
51	5707	3.81	1.6
51	5857	3.91	1.6
51	6011	4.01	1.6
51	6161	4.11	1.6
51	6311	4.21	1.6
51	6461	4.31	1.6
51	6611	4.41	1.6
51	6761	4.51	1.6
51	6911	4.61	1.6
51	7061	4.71	1.6
51	7211	4.81	1.6
51	7361	4.91	1.6
51	7515	5.01	1.6
51	7665	5.11	1.6
51	7815	5.21	1.6
51	7965	5.31	1.6
51	8115	5.41	1.6
51	8265	5.51	1.6
51	8415	5.61	1.6
51	8565	5.71	1.6
51	8715	5.81	1.6
51	8865	5.91	1.6
51	9019	6.01	1.6
51	9169	6.11	1.6
51	9319	6.21	1.6
51	9469	6.31	1.6
51	9619	6.41	1.6
51	9769	6.51	1.6
51	9919	6.61	1.6
51	10069	6.71	1.6
51	10219	6.81	1.6
51	10369	6.91	1.6
51	10523	7.01	1.6
51	10673	7.11	1.6
51	10823	7.21	1.6
51	10973	7.31	1.6
51	11123	7.41	1.6
51	11273	7.51	1.6
51	11423	7.61	1.6
51	11573	7.71	1.6
51	11723	7.81	1.6
51	11873	7.91	1.6
51	12027	8.01	1.6
51	12177	8.11	1.6
51	12327	8.21	1.6
51	12477	8.31	1.6
51	12627	8.41	1.6
51	12777	8.51	1.6
51	12927	8.61	1.6
51	13077	8.71	1.6
51	13227	8.81	1.6
51	13377	8.91	1.6
51	13531	9.01	1.6
51	13681	9.11	1.6
51	13831	9.21	1.6
51	13981	9.31	1.6
51	14131	9.41	1.6
51	14281	9.51	1.6
51	14431	9.61	1.6
51	14581	9.71	1.6
51	14731	9.81	1.6
51	14881	9.91	1.6
51	15035	10.01	1.6
51	15185	10.11	1.6
51	15335	10.21	1.6
51	15485	10.31	1.6
51	15635	10.41	1.6
51	15785	10.51	1.6
51	15935	10.61	1.6
51	16085	10.71	1.6
51	16235	10.81	1.6
51	16385	10.91	1.6
51	16539	11.01	1.6
51	16689	11.11	1.6
51	16839	11.21	1.6
51	16989	11.31	1.6
51	17140	11.41	1.6
51	17290	11.51	1.6
51	17440	11.61	1.6
51	17590	11.71	1.6
51	17740	11.81	1.6
51	17891	11.91	1.6
51	18045	12.01	1.6
51	18195	12.11	1.6
51	18345	12.21	1.6
51	18495	12.31	1.6
51	18645	12.41	1.6
51	18795	12.51	1.6
51	18945	12.61	1.6
51	19095	12.71	1.6
51	19245	12.81	1.6
51	19395	12.91	1.6
51	19549	13.01	1.6
51	19699	13.11	1.6
51	19849	13.21	1.6
51	19999	13.31	1.6
51	20149	13.41	1.6
51	20299	13.51	1.6
51	20449	13.61	1.6
51	20599	13.71	1.6
51	20749	13.81	1.6
51	20899	13.91	1.6
51	21053	14.01	1.6
51	21203	14.11	1.6
51	21353	14.21	1.6
51	21503	14.31	1.6
51	21653	14.41	1.6
51	21803	14.51	1.6
51	21953	14.61	1.6
51	22103	14.71	1.6
51	22253	14.81	1.6
51	22403	14.91	1.6
51	22557	15.01	1.6
51	22707	15.11	1.6
51	22857	15.21	1.6
51	23007	15.31	1.6
51	23157	15.41	1.6
51	23307	15.51	1.6
51	23457	15.61	1.6
51	23607	15.71	1.6
51	23757	15.81	1.6
51	23907	15.91	1.6
51	24061	16.01	1.6
51	24211	16.11	1.6
51	24361	16.21	1.6
51	24511	16.31	1.6
51	24661	16.41	1.6
51	24811	16.51	1.6
51	24961	16.61	1.6
51	25111	16.71	1.6
51	25261	16.81	1.6
51	25411	16.91	1.6
51	25565	17.01	1.6
51	25715	17.11	1.6
51	25865	17.21	1.6
51	26015	17.31	1.6
51	26165	17.41	1.6
51	26315	17.51	1.6
51	26465	17.61	1.6
51	26615	17.71	1.6
51	26765	17.81	1.6
51	26915	17.91	1.6
51	27069	18.01	1.6
51	27219	18.11	1.6
51	27369	18.21	1.6
51	27519	18.31	1.6
51	27669	18.41	1.6
51	27819	18.51	1.6
51	27969	18.61	1.6
51	28119	18.71	1.6
51	28269	18.81	1.6
51	28419	18.91	1.6
51	28573	19.01	1.6
51	28723	19.11	1.6
51	28873	19.21	1.6
51	29023	19.31	1.6
51	29173	19.41	1.6
51	29323	19.51	1.6
51	29473	19.61	1.6
51	29623	19.71	1.6
51	29773	19.81	1.6
51	29923	19.91	1.6
51	30077	20.01	1.6
51	30227	20.11	1.6
51	30377	20.21	1.6
51	30527	20.31	1.6
51	30677	20.41	1.6
51	30827	20.51	1.6
51	30977	20.61	1.6
51	31127	20.71	1.6
51	31277	20.81	1.6
51	31427	20.91	1.6
51	31581	21.01	1.6
51	31731	21.11	1.6
51	31881	21.21	1.6
51	32031	21.31	1.6
51	32181	21.41	1.6
51	32331	21.51	1.6
51	32481	21.61	1.6
51	32631	21.71	1.6
51	32781	21.81	1.6
51	32931	21.91	1.6
51	33085	22.01	1.6
51	33235	22.11	1.6
51	33385	22.21	1.6
51	33535	22.31	1.6
51	33685	22.41	1.6
51	33835	22.51	1.6
51	33985	22.61	1.6
51	34135	22.71	1.6
51	34285	22.81	1.6
51	34435	22.91	1.6
51	34589	23.01	1.6
51	34739	23.11	1.6
51	34889	23.21	1.6
51	35039	23.31	1.6
51	35189	23.41	1.6
51	35339	23.51	1.6
51	35489	23.61	1.6
51	35639	23.71	1.6
51	35789	23.81	1.6
51	35939	23.91	1.6
51	36093	24.01	1.6
51	36243	24.11	1.6
51	36393	24.21	1.6
51	36543	24.31	1.6
51	36693	24.41	1.6
51	36843	24.51	1.6
51	36993	24.61	1.6
51	37143	24.71	1.6
51	37293	24.81	1.6
51	37443	24.91	1.6
51	37597	25.01	1.6
51	37747	25.11	1.6
51	37897	25.21	1.6
51	38047	25.31	1.6
51	38197	25.41	1.6
51	38347	25.51	1.6
51	38497	25.61	1.6
51	38647	25.71	1.6
51	38797	25.81	1.6
51	38947	25.91	1.6
51	39101	26.01	1.6
51	39251	26.11	1.6
51	39401	26.21	1.6
51	39551	26.31	1.6
51	39701	26.41	1.6
51	39851	26.51	1.6
51	40001	26.61	1.6
51	40151	26.71	1.6
51	40301	26.81	1.6
51	40451	26.91	1.6
51	40605	27.01	1.6
51	40755	27.11	1.6
51	40905	27.21	1.6
51	41055	27.31	1.6
51	41205	27.41	1.6
51	41355	27.51	1.6
51	41505	27.61	1.6
51	41655	27.71	1.6
51	41805	27.81	1.6
51	41955	27.91	1.6
51	42109	28.01	1.6
51	42259	28.11	1.6
51	42409	28.21	1.6
51	42559	28.31	1.6
51	42709	28.41	1.6
51	42859	28.51	1.6
51	43009	28.61	1.6
51	43159	28.71	1.6
51	43309	28.81	1.6
51	43459	28.91	1.6
51	43613	29.01	1.6
51	43763	29.11	1.6
51	43913	29.21	1.6
51	44063	29.31	1.6
51	44213	29.41	1.6
51	44363	29.51	1.6
51	44513	29.61	1.6
51	44663	29.71	1.6
51	44813	29.81	1.6
51	44963	29.91	1.6
51	45117	30.01	1.6
51	45267	30.11	1.6
51	45417	30.21	1.6
51	45567	30.31	1.6
51	45717	30.41	1.6
51	45867	30.51	1.6
51	46017	30.61	1.6
51	46167	30.71	1.6
51	46317	30.81	1.6
51	46467	30.91	1.6
51	46621	31.01	1.6
51	46771	31.11	1.6
51	46921	31.21	1.6
51	47071	31.31	1.6
51	47221	31.41	1.6
51	47371	31.51	1.6
51	47521	31.61	1.6
51	47671	31.71	1.6
51	47821	31.81	1.6
51	47971	31.91	1.6
51	48125	32.01	1.6
51	48275	32.11	1.6
51	48425	32.21	1.6
51	48575	32.31	1.6
51	48725	32.41	1.6
51	48875	32.51	1.6
51	49025	32.61	1.6
51	49175	32.71	1.6
51	49325	32.81	1.6
51	49475	32.91	1.6
51	49629	33.01	1.6
51	49779	33.11	1.6
51	49929	33.21	1.6
51	50079	33.31	1.6
51	50229	33.41	1.6
51	50379	33.51	1.6
51	50529	33.61	1.6
50	26	0.21	528.55
50	176	0.31	526.939
50	326	0.41	525.328
50	476	0.51	523.717
50	626	0.61	522.106
50	776	0.71	520.495
50	926	0.81	518.884
50	1076	0.91	517.273
50	1230	1.01	515.662
50	1381	1.11	514.051
50	1532	1.21	512.44
50	1683	1.31	510.829
50	2099	1.41	509.218
50	2249	1.51	507.607
50	2399	1.61	505.996
50	2549	1.71	504.386
50	2699	1.81	502.777
50	2849	1.91	501.169
50	3003	2.01	499.563
50	3153	2.11	497.957
50	3303	2.21	496.353
50	3453	2.31	494.75
50	3603	2.41	493.148
50	3753	2.51	491.548
50	3903	2.61	489.95
50	4053	2.71	488.353
50	4203	2.81	486.758
50	4353	2.91	485.164
50	4507	3.01	483.572
50	4657	3.11	481.981
50	4807	3.21	480.393
50	4957	3.31	478.806
50	5107	3.41	477.22
50	5257	3.51	475.637
50	5407	3.61	474.055
50	5557	3.71	472.474
50	5707	3.81	470.896
50	5857	3.91	469.319
50	6011	4.01	467.743
50	6161	4.11	466.17
50	6311	4.21	464.598
50	6461	4.31	463.028
50	6611	4.41	461.46
50	6761	4.51	459.893
50	6911	4.61	458.328
50	7061	4.71	456.765
50	7211	4.81	455.203
50	7361	4.91	453.643
50	7515	5.01	452.085
50	7665	5.11	450.529
50	7815	5.21	448.974
50	7965	5.31	447.421
50	8115	5.41	445.87
50	8265	5.51	444.32
50	8415	5.61	442.773
50	8565	5.71	441.227
50	8715	5.81	439.682
50	8865	5.91	438.139
50	9019	6.01	436.598
50	9169	6.11	435.059
50	9319	6.21	433.522
50	9469	6.31	431.986
50	9619	6.41	430.452
50	9769	6.51	428.919
50	9919	6.61	427.389
50	10069	6.71	425.86
50	10219	6.81	424.332
50	10369	6.91	422.807
50	10523	7.01	421.283
50	10673	7.11	419.761
50	10823	7.21	418.241
50	10973	7.31	416.722
50	11123	7.41	415.205
50	11273	7.51	413.69
50	11423	7.61	412.176
50	11573	7.71	410.664
50	11723	7.81	409.154
50	11873	7.91	407.646
50	12027	8.01	406.139
50	12177	8.11	404.634
50	12327	8.21	403.131
50	12477	8.31	401.629
50	12627	8.41	400.129
50	12777	8.51	398.631
50	12927	8.61	397.135
50	13077	8.71	395.64
50	13227	8.81	394.147
50	13377	8.91	392.656
50	13531	9.01	391.167
50	13681	9.11	389.679
50	13831	9.21	388.193
50	13981	9.31	386.708
50	14131	9.41	385.226
50	14281	9.51	383.745
50	14431	9.61	382.265
50	14581	9.71	380.788
50	14731	9.81	379.312
50	14881	9.91	377.838
50	15035	10.01	376.365
50	15185	10.11	374.895
50	15335	10.21	373.426
50	15485	10.31	371.959
50	15635	10.41	370.493
50	15785	10.51	369.029
50	15935	10.61	367.567
50	16085	10.71	366.107
50	16235	10.81	364.648
50	16385	10.91	363.191
50	16539	11.01	361.736
50	16689	11.11	360.282
50	16839	11.21	358.831
50	16989	11.31	357.38
50	17140	11.41	355.932
50	17290	11.51	354.485
50	17440	11.61	353.04
50	17590	11.71	351.597
50	17740	11.81	350.156
50	17891	11.91	348.716
50	18045	12.01	347.275
50	18195	12.11	345.831
50	18345	12.21	344.382
50	18495	12.31	342.926
50	18645	12.41	341.462
50	18795	12.51	339.988
50	18945	12.61	338.503
50	19095	12.71	337.008
50	19245	12.81	335.503
50	19395	12.91	333.986
50	19549	13.01	332.459
50	19699	13.11	330.921
50	19849	13.21	329.374
50	19999	13.31	327.818
50	20149	13.41	326.253
50	20299	13.51	324.681
50	20449	13.61	323.101
50	20599	13.71	321.516
50	20749	13.81	319.924
50	20899	13.91	318.328
50	21053	14.01	316.727
50	21203	14.11	315.122
50	21353	14.21	313.515
50	21503	14.31	311.904
50	21653	14.41	310.291
50	21803	14.51	308.677
50	21953	14.61	307.061
50	22103	14.71	305.444
50	22253	14.81	303.826
50	22403	14.91	302.208
50	22557	15.01	300.59
50	22707	15.11	298.971
50	22857	15.21	297.352
50	23007	15.31	295.734
50	23157	15.41	294.116
50	23307	15.51	292.498
50	23457	15.61	290.881
50	23607	15.71	289.264
50	23757	15.81	287.647
50	23907	15.91	286.031
50	24061	16.01	284.416
50	24211	16.11	282.801
50	24361	16.21	281.186
50	24511	16.31	279.572
50	24661	16.41	277.958
50	24811	16.51	276.345
50	24961	16.61	274.732
50	25111	16.71	273.119
50	25261	16.81	271.507
50	25411	16.91	269.895
50	25565	17.01	268.283
50	25715	17.11	266.671
50	25865	17.21	265.06
50	26015	17.31	263.448
50	26165	17.41	261.837
50	26315	17.51	260.226
50	26465	17.61	258.615
50	26615	17.71	257.004
50	26765	17.81	255.393
50	26915	17.91	253.783
50	27069	18.01	252.172
50	27219	18.11	250.561
50	27369	18.21	248.95
50	27519	18.31	247.339
50	27669	18.41	245.729
50	27819	18.51	244.118
50	27969	18.61	242.507
50	28119	18.71	240.896
50	28269	18.81	239.285
50	28419	18.91	237.675
50	28573	19.01	236.064
50	28723	19.11	234.453
50	28873	19.21	232.842
50	29023	19.31	231.231
50	29173	19.41	229.62
50	29323	19.51	228.009
50	29473	19.61	226.398
50	29623	19.71	224.787
50	29773	19.81	223.176
50	29923	19.91	221.565
50	30077	20.01	219.954
50	30227	20.11	218.343
50	30377	20.21	216.732
50	30527	20.31	215.121
50	30677	20.41	213.509
50	30827	20.51	211.898
50	30977	20.61	210.287
50	31127	20.71	208.676
50	31277	20.81	207.065
50	31427	20.91	205.454
50	31581	21.01	203.843
50	31731	21.11	202.232
50	31881	21.21	200.621
50	32031	21.31	199.009
50	32181	21.41	197.398
50	32331	21.51	195.787
50	32481	21.61	194.176
50	32631	21.71	192.565
50	32781	21.81	190.954
50	32931	21.91	189.343
50	33085	22.01	187.732
50	33235	22.11	186.12
50	33385	22.21	184.509
50	33535	22.31	182.898
50	33685	22.41	181.287
50	33835	22.51	179.676
50	33985	22.61	178.065
50	34135	22.71	176.454
50	34285	22.81	174.843
50	34435	22.91	173.231
50	34589	23.01	171.62
50	34739	23.11	170.009
50	34889	23.21	168.398
50	35039	23.31	166.787
50	35189	23.41	165.176
50	35339	23.51	163.565
50	35489	23.61	161.954
50	35639	23.71	160.343
50	35789	23.81	158.731
50	35939	23.91	157.12
50	36093	24.01	155.509
50	36243	24.11	153.898
50	36393	24.21	152.287
50	36543	24.31	150.676
50	36693	24.41	149.065
50	36843	24.51	147.454
50	36993	24.61	145.843
50	37143	24.71	144.231
50	37293	24.81	142.62
50	37443	24.91	141.009
50	37597	25.01	139.398
50	37747	25.11	137.787
50	37897	25.21	136.176
50	38047	25.31	134.565
50	38197	25.41	132.954
50	38347	25.51	131.343
50	38497	25.61	129.731
50	38647	25.71	128.12
50	38797	25.81	126.509
50	38947	25.91	124.898
50	39101	26.01	123.287
50	39251	26.11	121.676
50	39401	26.21	120.065
50	39551	26.31	118.454
50	39701	26.41	116.843
50	39851	26.51	115.232
50	40001	26.61	113.62
50	40151	26.71	112.009
50	40301	26.81	110.398
50	40451	26.91	108.787
50	40605	27.01	107.176
50	40755	27.11	105.565
50	40905	27.21	103.954
50	41055	27.31	102.343
50	41205	27.41	100.732
50	41355	27.51	99.1204
50	41505	27.61	97.5093
50	41655	27.71	95.8982
50	41805	27.81	94.2871
50	41955	27.91	92.676
50	42109	28.01	91.0649
50	42259	28.11	89.4537
50	42409	28.21	87.8426
50	42559	28.31	86.2315
50	42709	28.41	84.6204
50	42859	28.51	83.0093
50	43009	28.61	81.3982
50	43159	28.71	79.7871
50	43309	28.81	78.176
50	43459	28.91	76.5649
50	43613	29.01	74.9538
50	43763	29.11	73.3426
50	43913	29.21	71.7315
50	44063	29.31	70.1204
50	44213	29.41	68.5093
50	44363	29.51	66.8982
50	44513	29.61	65.2871
50	44663	29.71	63.676
50	44813	29.81	62.0649
50	44963	29.91	60.4538
50	45117	30.01	58.8427
50	45267	30.11	57.2315
50	45417	30.21	55.6204
50	45567	30.31	54.0093
50	45717	30.41	52.3982
50	45867	30.51	50.7871
50	46017	30.61	49.176
50	46167	30.71	47.5649
50	46317	30.81	45.9538
50	46467	30.91	44.3427
50	46621	31.01	42.7316
50	46771	31.11	41.1204
50	46921	31.21	39.5093
50	47071	31.31	37.8982
50	47221	31.41	36.2871
50	47371	31.51	34.676
50	47521	31.61	33.0649
50	47671	31.71	31.4538
50	47821	31.81	29.8427
50	47971	31.91	28.2316
50	48125	32.01	26.6205
50	48275	32.11	25.0093
50	48425	32.21	23.3982
50	48575	32.31	21.7871
50	48725	32.41	20.176
50	48875	32.51	18.5649
50	49025	32.61	16.9538
50	49175	32.71	15.3427
50	49325	32.81	13.7316
50	49475	32.91	12.1205
50	49629	33.01	10.5094
50	49779	33.11	8.89824
50	49929	33.21	7.28713
50	50079	33.31	5.67602
50	50229	33.41	4.06491
50	50379	33.51	2.4538
50	50529	33.61	0.842692
49	26	0.21	16.11
49	176	0.31	16.11
49	326	0.41	16.1101
49	476	0.51	16.1101
49	626	0.61	16.1102
49	776	0.71	16.1103
49	926	0.81	16.1103
49	1076	0.91	16.1104
49	1230	1.01	16.1105
49	1381	1.11	16.1105
49	1532	1.21	16.1106
49	1683	1.31	16.1107
49	2099	1.41	16.1104
49	2249	1.51	16.1075
49	2399	1.61	16.1021
49	2549	1.71	16.0946
49	2699	1.81	16.0853
49	2849	1.91	16.0746
49	3003	2.01	16.0628
49	3153	2.11	16.05
49	3303	2.21	16.0364
49	3453	2.31	16.0222
49	3603	2.41	16.0074
49	3753	2.51	15.9923
49	3903	2.61	15.9767
49	4053	2.71	15.9609
49	4203	2.81	15.9449
49	4353	2.91	15.9286
49	4507	3.01	15.9122
49	4657	3.11	15.8957
49	4807	3.21	15.879
49	4957	3.31	15.8623
49	5107	3.41	15.8454
49	5257	3.51	15.8286
49	5407	3.61	15.8116
49	5557	3.71	15.7947
49	5707	3.81	15.7777
49	5857	3.91	15.7607
49	6011	4.01	15.7436
49	6161	4.11	15.7266
49	6311	4.21	15.7095
49	6461	4.31	15.6924
49	6611	4.41	15.6753
49	6761	4.51	15.6582
49	6911	4.61	15.6411
49	7061	4.71	15.6239
49	7211	4.81	15.6068
49	7361	4.91	15.5897
49	7515	5.01	15.5726
49	7665	5.11	15.5554
49	7815	5.21	15.5383
49	7965	5.31	15.5211
49	8115	5.41	15.504
49	8265	5.51	15.4869
49	8415	5.61	15.4697
49	8565	5.71	15.4526
49	8715	5.81	15.4354
49	8865	5.91	15.4183
49	9019	6.01	15.4012
49	9169	6.11	15.384
49	9319	6.21	15.3669
49	9469	6.31	15.3497
49	9619	6.41	15.3326
49	9769	6.51	15.3154
49	9919	6.61	15.2983
49	10069	6.71	15.2811
49	10219	6.81	15.264
49	10369	6.91	15.2468
49	10523	7.01	15.2297
49	10673	7.11	15.2126
49	10823	7.21	15.1954
49	10973	7.31	15.1783
49	11123	7.41	15.1611
49	11273	7.51	15.144
49	11423	7.61	15.1268
49	11573	7.71	15.1097
49	11723	7.81	15.0925
49	11873	7.91	15.0754
49	12027	8.01	15.0582
49	12177	8.11	15.0411
49	12327	8.21	15.024
49	12477	8.31	15.0068
49	12627	8.41	14.9897
49	12777	8.51	14.9725
49	12927	8.61	14.9554
49	13077	8.71	14.9382
49	13227	8.81	14.9211
49	13377	8.91	14.9039
49	13531	9.01	14.8868
49	13681	9.11	14.8696
49	13831	9.21	14.8525
49	13981	9.31	14.8353
49	14131	9.41	14.8182
49	14281	9.51	14.8011
49	14431	9.61	14.7839
49	14581	9.71	14.7668
49	14731	9.81	14.7496
49	14881	9.91	14.7325
49	15035	10.01	14.7153
49	15185	10.11	14.6982
49	15335	10.21	14.681
49	15485	10.31	14.6639
49	15635	10.41	14.6467
49	15785	10.51	14.6296
49	15935	10.61	14.6125
49	16085	10.71	14.5953
49	16235	10.81	14.5782
49	16385	10.91	14.561
49	16539	11.01	14.5439
49	16689	11.11	14.5267
49	16839	11.21	14.5096
49	16989	11.31	14.4924
49	17140	11.41	14.4753
49	17290	11.51	14.4581
49	17440	11.61	14.441
49	17590	11.71	14.4238
49	17740	11.81	14.4067
49	17891	11.91	14.3984
49	18045	12.01	14.4177
49	18195	12.11	14.4604
49	18345	12.21	14.5225
49	18495	12.31	14.6003
49	18645	12.41	14.6909
49	18795	12.51	14.7908
49	18945	12.61	14.8963
49	19095	12.71	15.0047
49	19245	12.81	15.1135
49	19395	12.91	15.2206
49	19549	13.01	15.3244
49	19699	13.11	15.4237
49	19849	13.21	15.5175
49	19999	13.31	15.6051
49	20149	13.41	15.686
49	20299	13.51	15.76
49	20449	13.61	15.827
49	20599	13.71	15.8871
49	20749	13.81	15.9404
49	20899	13.91	15.9872
49	21053	14.01	16.0278
49	21203	14.11	16.0626
49	21353	14.21	16.092
49	21503	14.31	16.1165
49	21653	14.41	16.1365
49	21803	14.51	16.1524
49	21953	14.61	16.1647
49	22103	14.71	16.1739
49	22253	14.81	16.1803
49	22403	14.91	16.1843
49	22557	15.01	16.1862
49	22707	15.11	16.1865
49	22857	15.21	16.1854
49	23007	15.31	16.1831
49	23157	15.41	16.18
49	23307	15.51	16.1761
49	23457	15.61	16.1718
49	23607	15.71	16.1672
49	23757	15.81	16.1624
49	23907	15.91	16.1576
49	24061	16.01	16.1528
49	24211	16.11	16.1481
49	24361	16.21	16.1436
49	24511	16.31	16.1393
49	24661	16.41	16.1352
49	24811	16.51	16.1315
49	24961	16.61	16.1281
49	25111	16.71	16.125
49	25261	16.81	16.1222
49	25411	16.91	16.1197
49	25565	17.01	16.1175
49	25715	17.11	16.1155
49	25865	17.21	16.1139
49	26015	17.31	16.1125
49	26165	17.41	16.1113
49	26315	17.51	16.1103
49	26465	17.61	16.1095
49	26615	17.71	16.1089
49	26765	17.81	16.1085
49	26915	17.91	16.1081
49	27069	18.01	16.1079
49	27219	18.11	16.1078
49	27369	18.21	16.1077
49	27519	18.31	16.1078
49	27669	18.41	16.1078
49	27819	18.51	16.108
49	27969	18.61	16.1081
49	28119	18.71	16.1083
49	28269	18.81	16.1085
49	28419	18.91	16.1087
49	28573	19.01	16.1089
49	28723	19.11	16.1092
49	28873	19.21	16.1094
49	29023	19.31	16.1096
49	29173	19.41	16.1098
49	29323	19.51	16.11
49	29473	19.61	16.1101
49	29623	19.71	16.1103
49	29773	19.81	16.1104
49	29923	19.91	16.1106
49	30077	20.01	16.1107
49	30227	20.11	16.1108
49	30377	20.21	16.1109
49	30527	20.31	16.1109
49	30677	20.41	16.111
49	30827	20.51	16.1111
49	30977	20.61	16.1111
49	31127	20.71	16.1112
49	31277	20.81	16.1112
49	31427	20.91	16.1112
49	31581	21.01	16.1112
49	31731	21.11	16.1112
49	31881	21.21	16.1112
49	32031	21.31	16.1112
49	32181	21.41	16.1112
49	32331	21.51	16.1112
49	32481	21.61	16.1112
49	32631	21.71	16.1112
49	32781	21.81	16.1112
49	32931	21.91	16.1112
49	33085	22.01	16.1112
49	33235	22.11	16.1112
49	33385	22.21	16.1112
49	33535	22.31	16.1112
49	33685	22.41	16.1112
49	33835	22.51	16.1112
49	33985	22.61	16.1112
49	34135	22.71	16.1111
49	34285	22.81	16.1111
49	34435	22.91	16.1111
49	34589	23.01	16.1111
49	34739	23.11	16.1111
49	34889	23.21	16.1111
49	35039	23.31	16.1111
49	35189	23.41	16.1111
49	35339	23.51	16.1111
49	35489	23.61	16.1111
49	35639	23.71	16.1111
49	35789	23.81	16.1111
49	35939	23.91	16.1111
49	36093	24.01	16.1111
49	36243	24.11	16.1111
49	36393	24.21	16.1111
49	36543	24.31	16.1111
49	36693	24.41	16.1111
49	36843	24.51	16.1111
49	36993	24.61	16.1111
49	37143	24.71	16.1111
49	37293	24.81	16.1111
49	37443	24.91	16.1111
49	37597	25.01	16.1111
49	37747	25.11	16.1111
49	37897	25.21	16.1111
49	38047	25.31	16.1111
49	38197	25.41	16.1111
49	38347	25.51	16.1111
49	38497	25.61	16.1111
49	38647	25.71	16.1111
49	38797	25.81	16.1111
49	38947	25.91	16.1111
49	39101	26.01	16.1111
49	39251	26.11	16.1111
49	39401	26.21	16.1111
49	39551	26.31	16.1111
49	39701	26.41	16.1111
49	39851	26.51	16.1111
49	40001	26.61	16.1111
49	40151	26.71	16.1111
49	40301	26.81	16.1111
49	40451	26.91	16.1111
49	40605	27.01	16.1111
49	40755	27.11	16.1111
49	40905	27.21	16.1111
49	41055	27.31	16.1111
49	41205	27.41	16.1111
49	41355	27.51	16.1111
49	41505	27.61	16.1111
49	41655	27.71	16.1111
49	41805	27.81	16.1111
49	41955	27.91	16.1111
49	42109	28.01	16.1111
49	42259	28.11	16.1111
49	42409	28.21	16.1111
49	42559	28.31	16.1111
49	42709	28.41	16.1111
49	42859	28.51	16.1111
49	43009	28.61	16.1111
49	43159	28.71	16.1111
49	43309	28.81	16.1111
49	43459	28.91	16.1111
49	43613	29.01	16.1111
49	43763	29.11	16.1111
49	43913	29.21	16.1111
49	44063	29.31	16.1111
49	44213	29.41	16.1111
49	44363	29.51	16.1111
49	44513	29.61	16.1111
49	44663	29.71	16.1111
49	44813	29.81	16.1111
49	44963	29.91	16.1111
49	45117	30.01	16.1111
49	45267	30.11	16.1111
49	45417	30.21	16.1111
49	45567	30.31	16.1111
49	45717	30.41	16.1111
49	45867	30.51	16.1111
49	46017	30.61	16.1111
49	46167	30.71	16.1111
49	46317	30.81	16.1111
49	46467	30.91	16.1111
49	46621	31.01	16.1111
49	46771	31.11	16.1111
49	46921	31.21	16.1111
49	47071	31.31	16.1111
49	47221	31.41	16.1111
49	47371	31.51	16.1111
49	47521	31.61	16.1111
49	47671	31.71	16.1111
49	47821	31.81	16.1111
49	47971	31.91	16.1111
49	48125	32.01	16.1111
49	48275	32.11	16.1111
49	48425	32.21	16.1111
49	48575	32.31	16.1111
49	48725	32.41	16.1111
49	48875	32.51	16.1111
49	49025	32.61	16.1111
49	49175	32.71	16.1111
49	49325	32.81	16.1111
49	49475	32.91	16.1111
49	49629	33.01	16.1111
49	49779	33.11	16.1111
49	49929	33.21	16.1111
49	50079	33.31	16.1111
49	50229	33.41	16.1111
49	50379	33.51	16.1111
49	50529	33.61	16.1111
45	26	0.21	0
45	176	0.31	0
45	326	0.41	0
45	476	0.51	0
45	626	0.61	0
45	776	0.71	0
45	926	0.81	0
45	1076	0.91	0
45	1230	1.01	0
45	1381	1.11	0
45	1532	1.21	0
45	1683	1.31	0
45	2099	1.41	6.41138
45	2249	1.51	6.04368
45	2399	1.61	5.77207
45	2549	1.71	5.57928
45	2699	1.81	5.45116
45	2849	1.91	5.37608
45	3003	2.01	5.34451
45	3153	2.11	5.34865
45	3303	2.21	5.38207
45	3453	2.31	5.43951
45	3603	2.41	5.51667
45	3753	2.51	5.60999
45	3903	2.61	5.71657
45	4053	2.71	5.83403
45	4203	2.81	5.96042
45	4353	2.91	6.09413
45	4507	3.01	6.23385
45	4657	3.11	6.37849
45	4807	3.21	6.52718
45	4957	3.31	6.67918
45	5107	3.41	6.83391
45	5257	3.51	6.99086
45	5407	3.61	7.14965
45	5557	3.71	7.30994
45	5707	3.81	7.47146
45	5857	3.91	7.63399
45	6011	4.01	7.79735
45	6161	4.11	7.96139
45	6311	4.21	8.12599
45	6461	4.31	8.29104
45	6611	4.41	8.45647
45	6761	4.51	8.62221
45	6911	4.61	8.7882
45	7061	4.71	8.9544
45	7211	4.81	9.12077
45	7361	4.91	9.28728
45	7515	5.01	9.45391
45	7665	5.11	9.62062
45	7815	5.21	9.78742
45	7965	5.31	9.95427
45	8115	5.41	10.1212
45	8265	5.51	10.2881
45	8415	5.61	10.4551
45	8565	5.71	10.6221
45	8715	5.81	10.7892
45	8865	5.91	10.9561
45	9019	6.01	11.1213
45	9169	6.11	11.2824
45	9319	6.21	11.4375
45	9469	6.31	11.5854
45	9619	6.41	11.7248
45	9769	6.51	11.8553
45	9919	6.61	11.9762
45	10069	6.71	12.0875
45	10219	6.81	12.1893
45	10369	6.91	12.2817
45	10523	7.01	12.365
45	10673	7.11	12.4397
45	10823	7.21	12.5063
45	10973	7.31	12.5654
45	11123	7.41	12.6176
45	11273	7.51	12.6635
45	11423	7.61	12.7037
45	11573	7.71	12.7388
45	11723	7.81	12.7694
45	11873	7.91	12.796
45	12027	8.01	12.8193
45	12177	8.11	12.8397
45	12327	8.21	12.8577
45	12477	8.31	12.8736
45	12627	8.41	12.888
45	12777	8.51	12.901
45	12927	8.61	12.9131
45	13077	8.71	12.9244
45	13227	8.81	12.9353
45	13377	8.91	12.9459
45	13531	9.01	12.9563
45	13681	9.11	12.9668
45	13831	9.21	12.9775
45	13981	9.31	12.9884
45	14131	9.41	12.9995
45	14281	9.51	13.0111
45	14431	9.61	13.023
45	14581	9.71	13.0353
45	14731	9.81	13.0481
45	14881	9.91	13.0613
45	15035	10.01	13.0749
45	15185	10.11	13.089
45	15335	10.21	13.1034
45	15485	10.31	13.1182
45	15635	10.41	13.1333
45	15785	10.51	13.1488
45	15935	10.61	13.1645
45	16085	10.71	13.1805
45	16235	10.81	13.1968
45	16385	10.91	13.2133
45	16539	11.01	13.2299
45	16689	11.11	13.2467
45	16839	11.21	13.2637
45	16989	11.31	13.2807
45	17140	11.41	0
45	17290	11.51	0
45	17440	11.61	0
45	17590	11.71	0
45	17740	11.81	0
45	17891	11.91	0
45	18045	12.01	0
45	18195	12.11	0
45	18345	12.21	0
45	18495	12.31	0
45	18645	12.41	0
45	18795	12.51	0
45	18945	12.61	0
45	19095	12.71	0
45	19245	12.81	0
45	19395	12.91	0
45	19549	13.01	0
45	19699	13.11	0
45	19849	13.21	0
45	19999	13.31	0
45	20149	13.41	0
45	20299	13.51	0
45	20449	13.61	0
45	20599	13.71	0
45	20749	13.81	0
45	20899	13.91	0
45	21053	14.01	0
45	21203	14.11	0
45	21353	14.21	0
45	21503	14.31	0
45	21653	14.41	0
45	21803	14.51	0
45	21953	14.61	0
45	22103	14.71	0
45	22253	14.81	0
45	22403	14.91	0
45	22557	15.01	0
45	22707	15.11	0
45	22857	15.21	0
45	23007	15.31	0
45	23157	15.41	0
45	23307	15.51	0
45	23457	15.61	0
45	23607	15.71	0
45	23757	15.81	0
45	23907	15.91	0
45	24061	16.01	0
45	24211	16.11	0
45	24361	16.21	0
45	24511	16.31	0
45	24661	16.41	0
45	24811	16.51	0
45	24961	16.61	0
45	25111	16.71	0
45	25261	16.81	0
45	25411	16.91	0
45	25565	17.01	0
45	25715	17.11	0
45	25865	17.21	0
45	26015	17.31	0
45	26165	17.41	0
45	26315	17.51	0
45	26465	17.61	0
45	26615	17.71	0
45	26765	17.81	0
45	26915	17.91	0
45	27069	18.01	0
45	27219	18.11	0
45	27369	18.21	0
45	27519	18.31	0
45	27669	18.41	0
45	27819	18.51	0
45	27969	18.61	0
45	28119	18.71	0
45	28269	18.81	0
45	28419	18.91	0
45	28573	19.01	0
45	28723	19.11	0
45	28873	19.21	0
45	29023	19.31	0
45	29173	19.41	0
45	29323	19.51	0
45	29473	19.61	0
45	29623	19.71	0
45	29773	19.81	0
45	29923	19.91	0
45	30077	20.01	0
45	30227	20.11	0
45	30377	20.21	0
45	30527	20.31	0
45	30677	20.41	0
45	30827	20.51	0
45	30977	20.61	0
45	31127	20.71	0
45	31277	20.81	0
45	31427	20.91	0
45	31581	21.01	0
45	31731	21.11	0
45	31881	21.21	0
45	32031	21.31	0
45	32181	21.41	0
45	32331	21.51	0
45	32481	21.61	0
45	32631	21.71	0
45	32781	21.81	0
45	32931	21.91	0
45	33085	22.01	0
45	33235	22.11	0
45	33385	22.21	0
45	33535	22.31	0
45	33685	22.41	0
45	33835	22.51	0
45	33985	22.61	0
45	34135	22.71	0
45	34285	22.81	0
45	34435	22.91	0
45	34589	23.01	0
45	34739	23.11	0
45	34889	23.21	0
45	35039	23.31	0
45	35189	23.41	0
45	35339	23.51	0
45	35489	23.61	0
45	35639	23.71	0
45	35789	23.81	0
45	35939	23.91	0
45	36093	24.01	0
45	36243	24.11	0
45	36393	24.21	0
45	36543	24.31	0
45	36693	24.41	0
45	36843	24.51	0
45	36993	24.61	0
45	37143	24.71	0
45	37293	24.81	0
45	37443	24.91	0
45	37597	25.01	0
45	37747	25.11	0
45	37897	25.21	0
45	38047	25.31	0
45	38197	25.41	0
45	38347	25.51	0
45	38497	25.61	0
45	38647	25.71	0
45	38797	25.81	0
45	38947	25.91	0
45	39101	26.01	0
45	39251	26.11	0
45	39401	26.21	0
45	39551	26.31	0
45	39701	26.41	0
45	39851	26.51	0
45	40001	26.61	0
45	40151	26.71	0
45	40301	26.81	0
45	40451	26.91	0
45	40605	27.01	0
45	40755	27.11	0
45	40905	27.21	0
45	41055	27.31	0
45	41205	27.41	0
45	41355	27.51	0
45	41505	27.61	0
45	41655	27.71	0
45	41805	27.81	0
45	41955	27.91	0
45	42109	28.01	0
45	42259	28.11	0
45	42409	28.21	0
45	42559	28.31	0
45	42709	28.41	0
45	42859	28.51	0
45	43009	28.61	0
45	43159	28.71	0
45	43309	28.81	0
45	43459	28.91	0
45	43613	29.01	0
45	43763	29.11	0
45	43913	29.21	0
45	44063	29.31	0
45	44213	29.41	0
45	44363	29.51	0
45	44513	29.61	0
45	44663	29.71	0
45	44813	29.81	0
45	44963	29.91	0
45	45117	30.01	0
45	45267	30.11	0
45	45417	30.21	0
45	45567	30.31	0
45	45717	30.41	0
45	45867	30.51	0
45	46017	30.61	0
45	46167	30.71	0
45	46317	30.81	0
45	46467	30.91	0
45	46621	31.01	0
45	46771	31.11	0
45	46921	31.21	0
45	47071	31.31	0
45	47221	31.41	0
45	47371	31.51	0
45	47521	31.61	0
45	47671	31.71	0
45	47821	31.81	0
45	47971	31.91	0
45	48125	32.01	0
45	48275	32.11	0
45	48425	32.21	0
45	48575	32.31	0
45	48725	32.41	0
45	48875	32.51	0
45	49025	32.61	0
45	49175	32.71	0
45	49325	32.81	0
45	49475	32.91	0
45	49629	33.01	0
45	49779	33.11	0
45	49929	33.21	0
45	50079	33.31	0
45	50229	33.41	0
45	50379	33.51	0
45	50529	33.61	0
44	26	0.21	-1
44	176	0.31	-1
44	326	0.41	-1
44	476	0.51	-1
44	626	0.61	-1
44	776	0.71	-1
44	926	0.81	-1
44	1076	0.91	-1
44	1230	1.01	-1
44	1381	1.11	-1
44	1532	1.21	-1
44	1683	1.31	-1
44	2099	1.41	430.23
44	2249	1.51	426.386
44	2399	1.61	422.575
44	2549	1.71	418.788
44	2699	1.81	415.019
44	2849	1.91	411.262
44	3003	2.01	407.513
44	3153	2.11	403.767
44	3303	2.21	400.022
44	3453	2.31	396.275
44	3603	2.41	392.525
44	3753	2.51	388.768
44	3903	2.61	385.005
44	4053	2.71	381.234
44	4203	2.81	377.454
44	4353	2.91	373.664
44	4507	3.01	369.863
44	4657	3.11	366.052
44	4807	3.21	362.229
44	4957	3.31	358.395
44	5107	3.41	354.549
44	5257	3.51	350.69
44	5407	3.61	346.819
44	5557	3.71	342.935
44	5707	3.81	339.039
44	5857	3.91	335.13
44	6011	4.01	331.208
44	6161	4.11	327.273
44	6311	4.21	323.325
44	6461	4.31	319.364
44	6611	4.41	315.39
44	6761	4.51	311.402
44	6911	4.61	307.402
44	7061	4.71	303.388
44	7211	4.81	299.362
44	7361	4.91	295.322
44	7515	5.01	291.268
44	7665	5.11	287.202
44	7815	5.21	283.122
44	7965	5.31	279.029
44	8115	5.41	274.923
44	8265	5.51	270.803
44	8415	5.61	266.67
44	8565	5.71	262.524
44	8715	5.81	258.365
44	8865	5.91	254.192
44	9019	6.01	250.006
44	9169	6.11	245.808
44	9319	6.21	241.596
44	9469	6.31	237.374
44	9619	6.41	233.14
44	9769	6.51	228.896
44	9919	6.61	224.643
44	10069	6.71	220.382
44	10219	6.81	216.113
44	10369	6.91	211.839
44	10523	7.01	207.558
44	10673	7.11	203.274
44	10823	7.21	198.986
44	10973	7.31	194.695
44	11123	7.41	190.402
44	11273	7.51	186.107
44	11423	7.61	181.811
44	11573	7.71	177.516
44	11723	7.81	173.22
44	11873	7.91	168.925
44	12027	8.01	164.631
44	12177	8.11	160.338
44	12327	8.21	156.046
44	12477	8.31	151.757
44	12627	8.41	147.469
44	12777	8.51	143.183
44	12927	8.61	138.9
44	13077	8.71	134.619
44	13227	8.81	130.34
44	13377	8.91	126.063
44	13531	9.01	121.789
44	13681	9.11	117.517
44	13831	9.21	113.248
44	13981	9.31	108.981
44	14131	9.41	104.716
44	14281	9.51	100.453
44	14431	9.61	96.1933
44	14581	9.71	91.9353
44	14731	9.81	87.6795
44	14881	9.91	83.4258
44	15035	10.01	79.1742
44	15185	10.11	74.9247
44	15335	10.21	70.6772
44	15485	10.31	66.4316
44	15635	10.41	62.188
44	15785	10.51	57.9462
44	15935	10.61	53.7064
44	16085	10.71	49.4683
44	16235	10.81	45.2321
44	16385	10.91	40.9977
44	16539	11.01	36.7651
44	16689	11.11	32.5342
44	16839	11.21	28.305
44	16989	11.31	24.0776
44	17140	11.41	-1
44	17290	11.51	-1
44	17440	11.61	-1
44	17590	11.71	-1
44	17740	11.81	-1
44	17891	11.91	-1
44	18045	12.01	-1
44	18195	12.11	-1
44	18345	12.21	-1
44	18495	12.31	-1
44	18645	12.41	-1
44	18795	12.51	-1
44	18945	12.61	-1
44	19095	12.71	-1
44	19245	12.81	-1
44	19395	12.91	-1
44	19549	13.01	-1
44	19699	13.11	-1
44	19849	13.21	-1
44	19999	13.31	-1
44	20149	13.41	-1
44	20299	13.51	-1
44	20449	13.61	-1
44	20599	13.71	-1
44	20749	13.81	-1
44	20899	13.91	-1
44	21053	14.01	-1
44	21203	14.11	-1
44	21353	14.21	-1
44	21503	14.31	-1
44	21653	14.41	-1
44	21803	14.51	-1
44	21953	14.61	-1
44	22103	14.71	-1
44	22253	14.81	-1
44	22403	14.91	-1
44	22557	15.01	-1
44	22707	15.11	-1
44	22857	15.21	-1
44	23007	15.31	-1
44	23157	15.41	-1
44	23307	15.51	-1
44	23457	15.61	-1
44	23607	15.71	-1
44	23757	15.81	-1
44	23907	15.91	-1
44	24061	16.01	-1
44	24211	16.11	-1
44	24361	16.21	-1
44	24511	16.31	-1
44	24661	16.41	-1
44	24811	16.51	-1
44	24961	16.61	-1
44	25111	16.71	-1
44	25261	16.81	-1
44	25411	16.91	-1
44	25565	17.01	-1
44	25715	17.11	-1
44	25865	17.21	-1
44	26015	17.31	-1
44	26165	17.41	-1
44	26315	17.51	-1
44	26465	17.61	-1
44	26615	17.71	-1
44	26765	17.81	-1
44	26915	17.91	-1
44	27069	18.01	-1
44	27219	18.11	-1
44	27369	18.21	-1
44	27519	18.31	-1
44	27669	18.41	-1
44	27819	18.51	-1
44	27969	18.61	-1
44	28119	18.71	-1
44	28269	18.81	-1
44	28419	18.91	-1
44	28573	19.01	-1
44	28723	19.11	-1
44	28873	19.21	-1
44	29023	19.31	-1
44	29173	19.41	-1
44	29323	19.51	-1
44	29473	19.61	-1
44	29623	19.71	-1
44	29773	19.81	-1
44	29923	19.91	-1
44	30077	20.01	-1
44	30227	20.11	-1
44	30377	20.21	-1
44	30527	20.31	-1
44	30677	20.41	-1
44	30827	20.51	-1
44	30977	20.61	-1
44	31127	20.71	-1
44	31277	20.81	-1
44	31427	20.91	-1
44	31581	21.01	-1
44	31731	21.11	-1
44	31881	21.21	-1
44	32031	21.31	-1
44	32181	21.41	-1
44	32331	21.51	-1
44	32481	21.61	-1
44	32631	21.71	-1
44	32781	21.81	-1
44	32931	21.91	-1
44	33085	22.01	-1
44	33235	22.11	-1
44	33385	22.21	-1
44	33535	22.31	-1
44	33685	22.41	-1
44	33835	22.51	-1
44	33985	22.61	-1
44	34135	22.71	-1
44	34285	22.81	-1
44	34435	22.91	-1
44	34589	23.01	-1
44	34739	23.11	-1
44	34889	23.21	-1
44	35039	23.31	-1
44	35189	23.41	-1
44	35339	23.51	-1
44	35489	23.61	-1
44	35639	23.71	-1
44	35789	23.81	-1
44	35939	23.91	-1
44	36093	24.01	-1
44	36243	24.11	-1
44	36393	24.21	-1
44	36543	24.31	-1
44	36693	24.41	-1
44	36843	24.51	-1
44	36993	24.61	-1
44	37143	24.71	-1
44	37293	24.81	-1
44	37443	24.91	-1
44	37597	25.01	-1
44	37747	25.11	-1
44	37897	25.21	-1
44	38047	25.31	-1
44	38197	25.41	-1
44	38347	25.51	-1
44	38497	25.61	-1
44	38647	25.71	-1
44	38797	25.81	-1
44	38947	25.91	-1
44	39101	26.01	-1
44	39251	26.11	-1
44	39401	26.21	-1
44	39551	26.31	-1
44	39701	26.41	-1
44	39851	26.51	-1
44	40001	26.61	-1
44	40151	26.71	-1
44	40301	26.81	-1
44	40451	26.91	-1
44	40605	27.01	-1
44	40755	27.11	-1
44	40905	27.21	-1
44	41055	27.31	-1
44	41205	27.41	-1
44	41355	27.51	-1
44	41505	27.61	-1
44	41655	27.71	-1
44	41805	27.81	-1
44	41955	27.91	-1
44	42109	28.01	-1
44	42259	28.11	-1
44	42409	28.21	-1
44	42559	28.31	-1
44	42709	28.41	-1
44	42859	28.51	-1
44	43009	28.61	-1
44	43159	28.71	-1
44	43309	28.81	-1
44	43459	28.91	-1
44	43613	29.01	-1
44	43763	29.11	-1
44	43913	29.21	-1
44	44063	29.31	-1
44	44213	29.41	-1
44	44363	29.51	-1
44	44513	29.61	-1
44	44663	29.71	-1
44	44813	29.81	-1
44	44963	29.91	-1
44	45117	30.01	-1
44	45267	30.11	-1
44	45417	30.21	-1
44	45567	30.31	-1
44	45717	30.41	-1
44	45867	30.51	-1
44	46017	30.61	-1
44	46167	30.71	-1
44	46317	30.81	-1
44	46467	30.91	-1
44	46621	31.01	-1
44	46771	31.11	-1
44	46921	31.21	-1
44	47071	31.31	-1
44	47221	31.41	-1
44	47371	31.51	-1
44	47521	31.61	-1
44	47671	31.71	-1
44	47821	31.81	-1
44	47971	31.91	-1
44	48125	32.01	-1
44	48275	32.11	-1
44	48425	32.21	-1
44	48575	32.31	-1
44	48725	32.41	-1
44	48875	32.51	-1
44	49025	32.61	-1
44	49175	32.71	-1
44	49325	32.81	-1
44	49475	32.91	-1
44	49629	33.01	-1
44	49779	33.11	-1
44	49929	33.21	-1
44	50079	33.31	-1
44	50229	33.41	-1
44	50379	33.51	-1
44	50529	33.61	-1
46	26	0.21	3
46	176	0.31	3
46	326	0.41	3
46	476	0.51	3
46	626	0.61	3
46	776	0.71	3
46	926	0.81	3
46	1076	0.91	3
46	1230	1.01	3
46	1381	1.11	3
46	1532	1.21	3
46	1683	1.31	3
46	2099	1.41	3
46	2249	1.51	3
46	2399	1.61	3
46	2549	1.71	3
46	2699	1.81	3
46	2849	1.91	3
46	3003	2.01	3
46	3153	2.11	3
46	3303	2.21	3
46	3453	2.31	3
46	3603	2.41	3
46	3753	2.51	3
46	3903	2.61	3
46	4053	2.71	3
46	4203	2.81	3
46	4353	2.91	3
46	4507	3.01	3
46	4657	3.11	3
46	4807	3.21	3
46	4957	3.31	3
46	5107	3.41	3
46	5257	3.51	3
46	5407	3.61	3
46	5557	3.71	3
46	5707	3.81	3
46	5857	3.91	3
46	6011	4.01	3
46	6161	4.11	3
46	6311	4.21	3
46	6461	4.31	3
46	6611	4.41	3
46	6761	4.51	3
46	6911	4.61	3
46	7061	4.71	3
46	7211	4.81	3
46	7361	4.91	3
46	7515	5.01	3
46	7665	5.11	3
46	7815	5.21	3
46	7965	5.31	3
46	8115	5.41	3
46	8265	5.51	3
46	8415	5.61	3
46	8565	5.71	3
46	8715	5.81	3
46	8865	5.91	3
46	9019	6.01	3
46	9169	6.11	3
46	9319	6.21	3
46	9469	6.31	3
46	9619	6.41	3
46	9769	6.51	3
46	9919	6.61	3
46	10069	6.71	3
46	10219	6.81	3
46	10369	6.91	3
46	10523	7.01	3
46	10673	7.11	3
46	10823	7.21	3
46	10973	7.31	3
46	11123	7.41	3
46	11273	7.51	3
46	11423	7.61	3
46	11573	7.71	3
46	11723	7.81	3
46	11873	7.91	3
46	12027	8.01	3
46	12177	8.11	3
46	12327	8.21	3
46	12477	8.31	3
46	12627	8.41	3
46	12777	8.51	3
46	12927	8.61	3
46	13077	8.71	3
46	13227	8.81	3
46	13377	8.91	3
46	13531	9.01	3
46	13681	9.11	3
46	13831	9.21	3
46	13981	9.31	3
46	14131	9.41	3
46	14281	9.51	3
46	14431	9.61	3
46	14581	9.71	3
46	14731	9.81	3
46	14881	9.91	3
46	15035	10.01	3
46	15185	10.11	3
46	15335	10.21	3
46	15485	10.31	3
46	15635	10.41	3
46	15785	10.51	3
46	15935	10.61	3
46	16085	10.71	3
46	16235	10.81	3
46	16385	10.91	3
46	16539	11.01	3
46	16689	11.11	3
46	16839	11.21	3
46	16989	11.31	3
46	17140	11.41	3
46	17290	11.51	3
46	17440	11.61	3
46	17590	11.71	3
46	17740	11.81	3
46	17891	11.91	3
46	18045	12.01	3
46	18195	12.11	3
46	18345	12.21	3
46	18495	12.31	3
46	18645	12.41	3
46	18795	12.51	3
46	18945	12.61	3
46	19095	12.71	3
46	19245	12.81	3
46	19395	12.91	3
46	19549	13.01	3
46	19699	13.11	3
46	19849	13.21	3
46	19999	13.31	3
46	20149	13.41	3
46	20299	13.51	3
46	20449	13.61	3
46	20599	13.71	3
46	20749	13.81	3
46	20899	13.91	3
46	21053	14.01	3
46	21203	14.11	3
46	21353	14.21	3
46	21503	14.31	3
46	21653	14.41	3
46	21803	14.51	3
46	21953	14.61	3
46	22103	14.71	3
46	22253	14.81	3
46	22403	14.91	3
46	22557	15.01	3
46	22707	15.11	3
46	22857	15.21	3
46	23007	15.31	3
46	23157	15.41	3
46	23307	15.51	3
46	23457	15.61	3
46	23607	15.71	3
46	23757	15.81	3
46	23907	15.91	3
46	24061	16.01	3
46	24211	16.11	3
46	24361	16.21	3
46	24511	16.31	3
46	24661	16.41	3
46	24811	16.51	3
46	24961	16.61	3
46	25111	16.71	3
46	25261	16.81	3
46	25411	16.91	3
46	25565	17.01	3
46	25715	17.11	3
46	25865	17.21	3
46	26015	17.31	3
46	26165	17.41	3
46	26315	17.51	3
46	26465	17.61	3
46	26615	17.71	3
46	26765	17.81	3
46	26915	17.91	3
46	27069	18.01	3
46	27219	18.11	3
46	27369	18.21	3
46	27519	18.31	3
46	27669	18.41	3
46	27819	18.51	3
46	27969	18.61	3
46	28119	18.71	3
46	28269	18.81	3
46	28419	18.91	3
46	28573	19.01	3
46	28723	19.11	3
46	28873	19.21	3
46	29023	19.31	3
46	29173	19.41	3
46	29323	19.51	3
46	29473	19.61	3
46	29623	19.71	3
46	29773	19.81	3
46	29923	19.91	3
46	30077	20.01	3
46	30227	20.11	3
46	30377	20.21	3
46	30527	20.31	3
46	30677	20.41	3
46	30827	20.51	3
46	30977	20.61	3
46	31127	20.71	3
46	31277	20.81	3
46	31427	20.91	3
46	31581	21.01	3
46	31731	21.11	3
46	31881	21.21	3
46	32031	21.31	3
46	32181	21.41	3
46	32331	21.51	3
46	32481	21.61	3
46	32631	21.71	3
46	32781	21.81	3
46	32931	21.91	3
46	33085	22.01	3
46	33235	22.11	3
46	33385	22.21	3
46	33535	22.31	3
46	33685	22.41	3
46	33835	22.51	3
46	33985	22.61	3
46	34135	22.71	3
46	34285	22.81	3
46	34435	22.91	3
46	34589	23.01	3
46	34739	23.11	3
46	34889	23.21	3
46	35039	23.31	3
46	35189	23.41	3
46	35339	23.51	3
46	35489	23.61	3
46	35639	23.71	3
46	35789	23.81	3
46	35939	23.91	3
46	36093	24.01	3
46	36243	24.11	3
46	36393	24.21	3
46	36543	24.31	3
46	36693	24.41	3
46	36843	24.51	3
46	36993	24.61	3
46	37143	24.71	3
46	37293	24.81	3
46	37443	24.91	3
46	37597	25.01	3
46	37747	25.11	3
46	37897	25.21	3
46	38047	25.31	3
46	38197	25.41	3
46	38347	25.51	3
46	38497	25.61	3
46	38647	25.71	3
46	38797	25.81	3
46	38947	25.91	3
46	39101	26.01	3
46	39251	26.11	3
46	39401	26.21	3
46	39551	26.31	3
46	39701	26.41	3
46	39851	26.51	3
46	40001	26.61	3
46	40151	26.71	3
46	40301	26.81	3
46	40451	26.91	3
46	40605	27.01	3
46	40755	27.11	3
46	40905	27.21	3
46	41055	27.31	3
46	41205	27.41	3
46	41355	27.51	3
46	41505	27.61	3
46	41655	27.71	3
46	41805	27.81	3
46	41955	27.91	3
46	42109	28.01	3
46	42259	28.11	3
46	42409	28.21	3
46	42559	28.31	3
46	42709	28.41	3
46	42859	28.51	3
46	43009	28.61	3
46	43159	28.71	3
46	43309	28.81	3
46	43459	28.91	3
46	43613	29.01	3
46	43763	29.11	3
46	43913	29.21	3
46	44063	29.31	3
46	44213	29.41	3
46	44363	29.51	3
46	44513	29.61	3
46	44663	29.71	3
46	44813	29.81	3
46	44963	29.91	3
46	45117	30.01	3
46	45267	30.11	3
46	45417	30.21	3
46	45567	30.31	3
46	45717	30.41	3
46	45867	30.51	3
46	46017	30.61	3
46	46167	30.71	3
46	46317	30.81	3
46	46467	30.91	3
46	46621	31.01	3
46	46771	31.11	3
46	46921	31.21	3
46	47071	31.31	3
46	47221	31.41	3
46	47371	31.51	3
46	47521	31.61	3
46	47671	31.71	3
46	47821	31.81	3
46	47971	31.91	3
46	48125	32.01	3
46	48275	32.11	3
46	48425	32.21	3
46	48575	32.31	3
46	48725	32.41	3
46	48875	32.51	3
46	49025	32.61	3
46	49175	32.71	3
46	49325	32.81	3
46	49475	32.91	3
46	49629	33.01	3
46	49779	33.11	3
46	49929	33.21	3
46	50079	33.31	3
46	50229	33.41	3
46	50379	33.51	3
46	50529	33.61	3
67	1191	1	0
67	2964	2	0
67	4468	3	0
67	5972	4	0
67	7476	5	0
67	8980	6	0
67	10484	7	0
67	11988	8	0
67	13492	9	0
67	14996	10	0
67	16500	11	0
67	18006	12	0
67	19510	13	0
67	21014	14	0
67	22518	15	0
67	24022	16	0
67	25526	17	0
67	27030	18	0
67	28534	19	0
67	30038	20	0
67	31542	21	0
67	33046	22	0
67	34550	23	0
67	36054	24	0
67	37558	25	0
67	39062	26	0
67	40566	27	0
67	42070	28	0
67	43574	29	0
67	45078	30	0
67	46582	31	0
67	48086	32	0
67	49590	33	0
66	1191	1	0.009679
66	2964	2	0.013149866896
66	4468	3	0.01249
66	5972	4	0.01249
66	7476	5	0.01249
66	8980	6	0.01249
66	10484	7	0.01249
66	11988	8	0.01249
66	13492	9	0.01249
66	14996	10	0.01249
66	16500	11	0.01249
66	18006	12	0.01249
66	19510	13	0.01249
66	21014	14	0.01249
66	22518	15	0.01249
66	24022	16	0.01249
66	25526	17	0.01249
66	27030	18	0.01249
66	28534	19	0.01249
66	30038	20	0.01249
66	31542	21	0.01249
66	33046	22	0.01249
66	34550	23	0.01249
66	36054	24	0.01249
66	37558	25	0.01249
66	39062	26	0.01249
66	40566	27	0.01249
66	42070	28	0.01249
66	43574	29	0.01249
66	45078	30	0.01249
66	46582	31	0.01249
66	48086	32	0.01249
66	49590	33	0.01249
65	1191	1	3
65	2964	2	3
65	4468	3	3
65	5972	4	3
65	7476	5	3
65	8980	6	3
65	10484	7	3
65	11988	8	3
65	13492	9	3
65	14996	10	3
65	16500	11	3
65	18006	12	3
65	19510	13	3
65	21014	14	3
65	22518	15	3
65	24022	16	3
65	25526	17	3
65	27030	18	3
65	28534	19	3
65	30038	20	3
65	31542	21	3
65	33046	22	3
65	34550	23	3
65	36054	24	3
65	37558	25	3
65	39062	26	3
65	40566	27	3
65	42070	28	3
65	43574	29	3
65	45078	30	3
65	46582	31	3
65	48086	32	3
65	49590	33	3
19	15	0.13	2.2735541365544
19	16	0.14	2.2736346528447
19	17	0.15	2.2737135679964
19	18	0.16	2.2737908979323
19	19	0.17	2.2738666585762
19	20	0.18	2.2739408658454
19	21	0.19	2.2740135356516
19	22	0.2	2.2740846838929
19	27	0.21	2.2741543264562
19	62	0.22	2.274222479211
19	97	0.23	2.2742891580082
19	98	0.24	2.2743543786761
19	99	0.25	2.2744181570189
19	134	0.26	2.2744805088141
19	135	0.27	2.274541449808
19	136	0.28	2.274600995716
19	137	0.29	2.2746591622183
19	138	0.3	2.2747159649574
19	177	0.31	2.2747714195377
19	212	0.32	2.2748255415216
19	247	0.33	2.2748783464266
19	248	0.34	2.2749298497256
19	249	0.35	2.2749800668409
19	284	0.36	2.2750290131473
19	285	0.37	2.2750767039664
19	286	0.38	2.2751231545639
19	287	0.39	2.2751683801509
19	288	0.4	2.2752123958784
19	327	0.41	2.2752552168403
19	362	0.42	2.2752968580672
19	397	0.43	2.2753373345271
19	398	0.44	2.2753766611209
19	399	0.45	2.2754148526852
19	434	0.46	2.2754519239865
19	435	0.47	2.2754878897219
19	436	0.48	2.2755227645167
19	437	0.49	2.2755565629239
19	438	0.5	2.2755892994224
19	477	0.51	2.2756209884141
19	512	0.52	2.275651644224
19	547	0.53	2.2756812811003
19	548	0.54	2.2757099132103
19	549	0.55	2.2757375546413
19	584	0.56	2.2757642193982
19	585	0.57	2.2757899214021
19	586	0.58	2.2758146744916
19	587	0.59	2.2758384924183
19	588	0.6	2.2758613888474
19	627	0.61	2.2758833773587
19	662	0.62	2.2759044714408
19	697	0.63	2.2759246844958
19	698	0.64	2.2759440298361
19	699	0.65	2.2759625206803
19	734	0.66	2.2759801701573
19	735	0.67	2.2759969913037
19	736	0.68	2.2760129970623
19	737	0.69	2.2760282002817
19	738	0.7	2.2760426137156
19	777	0.71	2.276056250025
19	812	0.72	2.2760691217714
19	847	0.73	2.2760812414222
19	848	0.74	2.2760926213482
19	849	0.75	2.2761032738206
19	884	0.76	2.2761132110151
19	885	0.77	2.2761224450063
19	886	0.78	2.2761309877721
19	887	0.79	2.2761388511892
19	888	0.8	2.2761460470359
19	927	0.81	2.2761525869908
19	962	0.82	2.2761584826314
19	997	0.83	2.276163745434
19	998	0.84	2.2761683867749
19	999	0.85	2.2761724179292
19	1034	0.86	2.2761758500694
19	1035	0.87	2.2761786942667
19	1036	0.88	2.2761809614921
19	1037	0.89	2.2761826626141
19	1038	0.9	2.2761838083969
19	1077	0.91	2.2761844095045
19	1112	0.92	2.2761844764996
19	1147	0.93	2.2761840198391
19	1148	0.94	2.2761830498813
19	1149	0.95	2.2761815768799
19	1184	0.96	2.2761796109858
19	1185	0.97	2.2761771622495
19	1186	0.98	2.2761742406172
19	1187	0.99	2.2761708559346
19	1192	1	2.276167017943
19	1231	1.01	2.2761627362832
19	1266	1.02	2.2761580204929
19	1301	1.03	2.2761528800094
19	1302	1.04	2.2761473241679
19	1303	1.05	2.2761413622004
19	1338	1.06	2.2761350032384
19	1339	1.07	2.2761282563128
19	1340	1.08	2.2761211303525
19	1341	1.09	2.276113634187
19	1342	1.1	2.2761057765437
19	1382	1.11	2.2760975660509
19	1417	1.12	2.2760890112373
19	1452	1.13	2.276080120531
19	1453	1.14	2.2760709022603
19	1454	1.15	2.2760613646545
19	1489	1.16	2.2760515158458
19	1490	1.17	2.2760413638669
19	1491	1.18	2.2760309166511
19	1492	1.19	2.2760201820362
19	1493	1.2	2.276009167763
19	1533	1.21	2.2759978814727
19	1568	1.22	2.2759863307123
19	1603	1.23	2.2759745229306
19	1604	1.24	2.2759624654833
19	1605	1.25	2.2759501656292
19	1640	1.26	2.2759376305329
19	1641	1.27	2.2759248672645
19	1642	1.28	2.2759118827999
19	1643	1.29	2.2758986840218
19	1644	1.3	2.2758852777213
19	1684	1.31	2.2758716705939
19	1931	1.32	2.2758578692458
19	1966	1.33	2.2758438801916
19	1967	1.34	2.2758297098542
19	1968	1.35	2.275815364566
19	2004	1.36	2.2758008505703
19	2058	1.37	2.2626985452555
19	2059	1.38	2.249849200867
19	2060	1.39	2.2372479340438
19	2061	1.4	2.2248899537142
19	2100	1.41	2.2127705594319
19	2135	1.42	2.2008851397373
19	2170	1.43	2.1892291705452
19	2171	1.44	2.1777982135583
19	2172	1.45	2.1665879147085
19	2207	1.46	2.1555940026228
19	2208	1.47	2.1448122871142
19	2209	1.48	2.1342386577004
19	2210	1.49	2.1238690821427
19	2211	1.5	2.1136996050101
19	2250	1.51	2.1037263462719
19	2285	1.52	2.0939454999098
19	2320	1.53	2.084353332556
19	2321	1.54	2.0749461821486
19	2322	1.55	2.0657204566204
19	2357	1.56	2.0566726326022
19	2358	1.57	2.0477992541473
19	2359	1.58	2.0390969314857
19	2360	1.59	2.0305623397922
19	2361	1.6	2.0221922179793
19	2400	1.61	2.0139833675117
19	2435	1.62	2.005932651239
19	2470	1.63	1.9980369922514
19	2471	1.64	1.9902933727535
19	2472	1.65	1.9826988329589
19	2507	1.66	1.9752504700038
19	2508	1.67	1.9679454368784
19	2509	1.68	1.9607809413819
19	2510	1.69	1.9537542450919
19	2511	1.7	1.9468626623512
19	2550	1.71	1.9401035592784
19	2585	1.72	1.9334743527885
19	2620	1.73	1.926972509637
19	2621	1.74	1.9205955454796
19	2622	1.75	1.9143410239488
19	2657	1.76	1.9082065557444
19	2658	1.77	1.9021897977435
19	2659	1.78	1.8962884521279
19	2660	1.79	1.8905002655245
19	2661	1.8	1.8848230281599
19	2700	1.81	1.8792545730351
19	2735	1.82	1.8737927751116
19	2770	1.83	1.8684355505134
19	2771	1.84	1.8631808557456
19	2772	1.85	1.8580266869224
19	2807	1.86	1.8529710790154
19	2808	1.87	1.8480121051103
19	2809	1.88	1.8431478756786
19	2810	1.89	1.8383765378689
19	2811	1.9	1.8336962748003
19	2850	1.91	1.8291053048782
19	2885	1.92	1.8246018811169
19	2920	1.93	1.8201842904788
19	2921	1.94	1.8158508532231
19	2922	1.95	1.811599922269
19	2957	1.96	1.8074298825673
19	2958	1.97	1.8033391504894
19	2959	1.98	1.7993261732192
19	2960	1.99	1.7953894281639
19	2965	2	1.7915274223751
19	3004	2.01	1.7877386919744
19	3039	2.02	1.7840218015988
19	3074	2.03	1.7803753438469
19	3075	2.04	1.7767979387458
19	3076	2.05	1.7732882332178
19	3111	2.06	1.7698449005667
19	3112	2.07	1.766466639965
19	3113	2.08	1.7631521759564
19	3114	2.09	1.7599002579668
19	3115	2.1	1.7567096598234
19	3154	2.11	1.7535791792826
19	3189	2.12	1.7505076375696
19	3224	2.13	1.7474938789232
19	3225	2.14	1.7445367701499
19	3226	2.15	1.7416352001889
19	3261	2.16	1.7387880796842
19	3262	2.17	1.7359943405618
19	3263	2.18	1.7332529356201
19	3264	2.19	1.7305628381259
19	3265	2.2	1.7279230414135
19	3304	2.21	1.7253325585006
19	3339	2.22	1.7227904217033
19	3374	2.23	1.7202956822637
19	3375	2.24	1.7178474099815
19	3376	2.25	1.7154446928543
19	3411	2.26	1.7130866367235
19	3412	2.27	1.7107723649301
19	3413	2.28	1.70850101797
19	3414	2.29	1.7062717531644
19	3415	2.3	1.7040837443325
19	3454	2.31	1.7019361814698
19	3489	2.32	1.6998282704326
19	3524	2.33	1.6977592326307
19	3525	2.34	1.6957283047244
19	3526	2.35	1.6937347383279
19	3561	2.36	1.6917777997176
19	3562	2.37	1.6898567695468
19	3563	2.38	1.6879709425658
19	3564	2.39	1.6861196273459
19	3565	2.4	1.6843021460118
19	3604	2.41	1.6825178339787
19	3639	2.42	1.6807660396874
19	3674	2.43	1.6790461243576
19	3675	2.44	1.6773574617327
19	3676	2.45	1.6756994378399
19	3711	2.46	1.6740714507467
19	3712	2.47	1.6724729103283
19	3713	2.48	1.6709032380365
19	3714	2.49	1.6693618666738
19	3715	2.5	1.6678482401719
19	3754	2.51	1.6663618133729
19	3789	2.52	1.6649020518175
19	3824	2.53	1.6634684315368
19	3825	2.54	1.6620604388448
19	3826	2.55	1.660677570139
19	3861	2.56	1.659319331704
19	3862	2.57	1.6579852395164
19	3863	2.58	1.6566748190555
19	3864	2.59	1.6553876051192
19	3865	2.6	1.6541231416398
19	3904	2.61	1.6528809815068
19	3939	2.62	1.6516606863899
19	3974	2.63	1.6504618265682
19	3975	2.64	1.6492839807626
19	3976	2.65	1.6481267359685
19	4011	2.66	1.6469896872952
19	4012	2.67	1.6458724378071
19	4013	2.68	1.6447745983666
19	4014	2.69	1.6436957874824
19	4015	2.7	1.6426356311607
19	4054	2.71	1.6415937627554
19	4089	2.72	1.6405698228275
19	4124	2.73	1.6395634590014
19	4125	2.74	1.6385743258277
19	4126	2.75	1.6376020846471
19	4161	2.76	1.6366464034565
19	4162	2.77	1.6357069567805
19	4163	2.78	1.6347834255423
19	4164	2.79	1.6338754969366
19	4165	2.8	1.6329828643098
19	4204	2.81	1.6321052270372
19	4239	2.82	1.6312422904047
19	4274	2.83	1.630393765494
19	4275	2.84	1.6295593690686
19	4276	2.85	1.6287388234613
19	4311	2.86	1.6279318564656
19	4312	2.87	1.6271382012298
19	4313	2.88	1.6263575961495
19	4314	2.89	1.6255897847667
19	4315	2.9	1.6248345156674
19	4354	2.91	1.624091542383
19	4389	2.92	1.6233606232935
19	4424	2.93	1.6226415215319
19	4425	2.94	1.6219340048917
19	4426	2.95	1.6212378457346
19	4461	2.96	1.6205528209004
19	4462	2.97	1.6198787116203
19	4463	2.98	1.61921530343
19	4464	2.99	1.6185623860842
19	4469	3	1.6179197534762
19	4508	3.01	1.6172872035531
19	4543	3.02	1.6166645382396
19	4578	3.03	1.6160515633586
19	4579	3.04	1.615448088553
19	4580	3.05	1.6148539272127
19	4615	3.06	1.6142688964003
19	4616	3.07	1.6136928167792
19	4617	3.08	1.6131255125419
19	4618	3.09	1.612566811342
19	4619	3.1	1.6120165442252
19	4658	3.11	1.611474545562
19	4693	3.12	1.6109406529849
19	4728	3.13	1.6104147073205
19	4729	3.14	1.6098965525308
19	4730	3.15	1.6093860356486
19	4765	3.16	1.6088830067176
19	4766	3.17	1.6083873187345
19	4767	3.18	1.6078988275902
19	4768	3.19	1.6074173920119
19	4769	3.2	1.6069428735088
19	4808	3.21	1.6064751363169
19	4843	3.22	1.6060140473455
19	4878	3.23	1.6055594761235
19	4879	3.24	1.6051112947488
19	4880	3.25	1.6046693778387
19	4915	3.26	1.6042336024792
19	4916	3.27	1.6038038481754
19	4917	3.28	1.6033799968065
19	4918	3.29	1.6029619325775
19	4919	3.3	1.6025495419731
19	4958	3.31	1.6021427137137
19	4993	3.32	1.6017413387113
19	5028	3.33	1.6013453100261
19	5029	3.34	1.6009545228243
19	5030	3.35	1.6005688743368
19	5065	3.36	1.6001882638176
19	5066	3.37	1.5998125925062
19	5067	3.38	1.5994417635865
19	5068	3.39	1.5990756821501
19	5069	3.4	1.5987142551562
19	5108	3.41	1.5983573913978
19	5143	3.42	1.5980050014635
19	5178	3.43	1.5976569977041
19	5179	3.44	1.5973132941952
19	5180	3.45	1.5969738067065
19	5215	3.46	1.5966384526665
19	5216	3.47	1.5963071511289
19	5217	3.48	1.5959798227432
19	5218	3.49	1.5956563897214
19	5219	3.5	1.5953367758079
19	5258	3.51	1.5950209062486
19	5293	3.52	1.5947087077634
19	5328	3.53	1.5944001085145
19	5329	3.54	1.5940950380797
19	5330	3.55	1.593793427424
19	5365	3.56	1.5934952088725
19	5366	3.57	1.5932003160831
19	5367	3.58	1.5929086840209
19	5368	3.59	1.5926202489323
19	5369	3.6	1.5923349483194
19	5408	3.61	1.5920527209161
19	5443	3.62	1.5917735066624
19	5478	3.63	1.5914972466829
19	5479	3.64	1.5912238832607
19	5480	3.65	1.5909533598164
19	5515	3.66	1.5906856208856
19	5516	3.67	1.5904206120966
19	5517	3.68	1.5901582801492
19	5518	3.69	1.589898572793
19	5519	3.7	1.5896414388066
19	5558	3.71	1.5893868279785
19	5593	3.72	1.5891346910858
19	5628	3.73	1.5888849798758
19	5629	3.74	1.5886376470471
19	5630	3.75	1.5883926462294
19	5665	3.76	1.5881499319666
19	5666	3.77	1.5879094596977
19	5667	3.78	1.5876711857399
19	5668	3.79	1.587435067271
19	5669	3.8	1.5872010623131
19	5708	3.81	1.586969129715
19	5743	3.82	1.5867392291363
19	5778	3.83	1.5865113210318
19	5779	3.84	1.5862853666355
19	5780	3.85	1.5860613279442
19	5815	3.86	1.5858391677046
19	5816	3.87	1.5856188493974
19	5817	3.88	1.5854003372229
19	5818	3.89	1.5851835960861
19	5819	3.9	1.5849685915839
19	5858	3.91	1.5847552899914
19	5893	3.92	1.5845436582482
19	5928	3.93	1.5843336639452
19	5929	3.94	1.5841252753125
19	5930	3.95	1.5839184612048
19	5965	3.96	1.583713191092
19	5966	3.97	1.5835094350446
19	5967	3.98	1.583307163723
19	5968	3.99	1.5831063483663
19	5973	4	1.5829069607801
19	6012	4.01	1.5827089733255
19	6047	4.02	1.5825123589087
19	6082	4.03	1.582317090969
19	6083	4.04	1.5821231434697
19	6084	4.05	1.5819304908862
19	6119	4.06	1.5817391081984
19	6120	4.07	1.5815489708785
19	6121	4.08	1.5813600548817
19	6122	4.09	1.581172336637
19	6123	4.1	1.5809857930389
19	6162	4.11	1.5808004014358
19	6197	4.12	1.5806161396243
19	6232	4.13	1.5804329858366
19	6233	4.14	1.5802509187351
19	6234	4.15	1.5800699174016
19	6269	4.16	1.5798899613317
19	6270	4.17	1.5797110304237
19	6271	4.18	1.5795331049727
19	6272	4.19	1.5793561656619
19	6273	4.2	1.5791801935551
19	6312	4.21	1.579005170089
19	6347	4.22	1.578831077067
19	6382	4.23	1.5786578966503
19	6383	4.24	1.5784856113514
19	6384	4.25	1.5783142040287
19	6419	4.26	1.5781436578767
19	6420	4.27	1.5779739564226
19	6421	4.28	1.5778050835179
19	6422	4.29	1.5776370233313
19	6423	4.3	1.5774697603443
19	6462	4.31	1.5773032793443
19	6497	4.32	1.5771375654181
19	6532	4.33	1.5769726039463
19	6533	4.34	1.576808380598
19	6534	4.35	1.5766448813251
19	6569	4.36	1.5764820923552
19	6570	4.37	1.576320000188
19	6571	4.38	1.5761585915892
19	6572	4.39	1.5759978535855
19	6573	4.4	1.5758377734585
19	6612	4.41	1.5756783387408
19	6647	4.42	1.5755195372109
19	6682	4.43	1.5753613568887
19	6683	4.44	1.5752037860285
19	6684	4.45	1.5750468131179
19	6719	4.46	1.5748904268698
19	6720	4.47	1.5747346162204
19	6721	4.48	1.5745793703243
19	6722	4.49	1.5744246785489
19	6723	4.5	1.5742705304715
19	6762	4.51	1.5741169158748
19	6797	4.52	1.5739638247428
19	6832	4.53	1.5738112472568
19	6833	4.54	1.5736591737916
19	6834	4.55	1.5735075949121
19	6869	4.56	1.5733565013685
19	6870	4.57	1.5732058840941
19	6871	4.58	1.5730557341994
19	6872	4.59	1.5729060429714
19	6873	4.6	1.5727568018685
19	6912	4.61	1.5726080025169
19	6947	4.62	1.5724596367084
19	6982	4.63	1.5723116963957
19	6983	4.64	1.5721641736915
19	6984	4.65	1.572017060863
19	7019	4.66	1.5718703503296
19	7020	4.67	1.5717240346604
19	7021	4.68	1.5715781065707
19	7022	4.69	1.5714325589193
19	7023	4.7	1.5712873847059
19	7062	4.71	1.5711425770688
19	7097	4.72	1.5709981292804
19	7132	4.73	1.5708540347456
19	7133	4.74	1.5707102870008
19	7134	4.75	1.5705668797079
19	7169	4.76	1.5704238066542
19	7170	4.77	1.57028106175
19	7171	4.78	1.5701386390253
19	7172	4.79	1.5699965326277
19	7173	4.8	1.5698547368207
19	7212	4.81	1.569713245979
19	7247	4.82	1.5695720545905
19	7282	4.83	1.5694311572496
19	7283	4.84	1.5692905486584
19	7284	4.85	1.5691502236236
19	7319	4.86	1.5690101770534
19	7320	4.87	1.5688704039566
19	7321	4.88	1.56873089944
19	7322	4.89	1.5685916587076
19	7323	4.9	1.5684526770572
19	7362	4.91	1.5683139498802
19	7397	4.92	1.5681754726573
19	7432	4.93	1.5680372409594
19	7433	4.94	1.5678992504444
19	7434	4.95	1.567761496855
[...]
2	61667	55.23	931.55726268403
2	61668	55.24	931.69615168374
2	61669	55.25	931.83504068346
2	61688	55.26	931.97392968317
2	61689	55.27	932.11281868289
2	61690	55.28	932.2517076826
2	61691	55.29	932.39059668231
2	61692	55.3	932.52948568203
2	61695	55.31	932.66837468175
2	61696	55.32	932.80726368146
2	61715	55.33	932.94615268118
2	61716	55.34	933.0850416809
2	61717	55.35	933.22393068061
2	61736	55.36	933.36281968033
2	61737	55.37	933.50170868005
2	61738	55.38	933.64059767977
2	61739	55.39	933.77948667949
2	61740	55.4	933.91837567921
2	61743	55.41	934.05726467893
2	61744	55.42	934.19615367865
2	61763	55.43	934.33504267837
2	61764	55.44	934.47393167809
2	61765	55.45	934.61282067782
2	61784	55.46	934.75170967754
2	61785	55.47	934.89059867726
2	61786	55.48	935.02948767698
2	61787	55.49	935.16837667671
2	61788	55.5	935.30726567643
2	61791	55.51	935.44615467616
2	61792	55.52	935.58504367588
2	61811	55.53	935.72393267561
2	61812	55.54	935.86282167533
2	61813	55.55	936.00171067506
2	61832	55.56	936.14059967479
2	61833	55.57	936.27948867451
2	61834	55.58	936.41837767424
2	61835	55.59	936.55726667397
2	61836	55.6	936.6961556737
2	61839	55.61	936.83504467343
2	61840	55.62	936.97393367316
2	61859	55.63	937.11282267289
2	61860	55.64	937.25171167262
2	61861	55.65	937.39060067235
2	61880	55.66	937.52948967208
2	61881	55.67	937.66837867181
2	61882	55.68	937.80726767154
2	61883	55.69	937.94615667127
2	61884	55.7	938.08504567101
2	61887	55.71	938.22393467074
2	61888	55.72	938.36282367047
2	61907	55.73	938.50171267021
2	61908	55.74	938.64060166994
2	61909	55.75	938.77949066968
2	61928	55.76	938.91837966941
2	61929	55.77	939.05726866915
2	61930	55.78	939.19615766888
2	61931	55.79	939.33504666862
2	61932	55.8	939.47393566836
2	61935	55.81	939.61282466809
2	61936	55.82	939.75171366783
2	61955	55.83	939.89060266757
2	61956	55.84	940.02949166731
2	61957	55.85	940.16838066705
2	61976	55.86	940.30726966679
2	61977	55.87	940.44615866653
2	61978	55.88	940.58504766627
2	61979	55.89	940.72393666601
2	61980	55.9	940.86282566575
2	61983	55.91	941.00171466549
2	61984	55.92	941.14060366523
2	62003	55.93	941.27949266497
2	62004	55.94	941.41838166472
2	62005	55.95	941.55727066446
2	62024	55.96	941.6961596642
2	62025	55.97	941.83504866395
2	62026	55.98	941.97393766369
2	62027	55.99	942.11282666343
2	62030	56	942.25171566318
2	62033	56.01	942.39060466292
2	62034	56.02	942.52949366267
2	62053	56.03	942.66838266242
2	62054	56.04	942.80727166216
2	62055	56.05	942.94616066191
2	62074	56.06	943.08504966166
2	62075	56.07	943.2239386614
2	62076	56.08	943.36282766115
2	62077	56.09	943.5017166609
2	62078	56.1	943.64060566065
2	62081	56.11	943.7794946604
2	62082	56.12	943.91838366015
2	62101	56.13	944.0572726599
2	62102	56.14	944.19616165965
2	62103	56.15	944.3350506594
2	62122	56.16	944.47393965915
2	62123	56.17	944.6128286589
2	62124	56.18	944.75171765866
2	62125	56.19	944.89060665841
2	62126	56.2	945.02949565816
2	62129	56.21	945.16838465791
2	62130	56.22	945.30727365767
2	62149	56.23	945.44616265742
2	62150	56.24	945.58505165718
2	62151	56.25	945.72394065693
2	62170	56.26	945.86282965669
2	62171	56.27	946.00171865644
2	62172	56.28	946.1406076562
2	62173	56.29	946.27949665595
2	62174	56.3	946.41838565571
2	62177	56.31	946.55727465547
2	62178	56.32	946.69616365522
2	62197	56.33	946.83505265498
2	62198	56.34	946.97394165474
2	62199	56.35	947.1128306545
2	62218	56.36	947.25171965426
2	62219	56.37	947.39060865402
2	62220	56.38	947.52949765378
2	62221	56.39	947.66838665354
2	62222	56.4	947.8072756533
2	62225	56.41	947.94616465306
2	62226	56.42	948.08505365282
2	62245	56.43	948.22394265258
2	62246	56.44	948.36283165234
2	62247	56.45	948.5017206521
2	62266	56.46	948.64060965187
2	62267	56.47	948.77949865163
2	62268	56.48	948.91838765139
2	62269	56.49	949.05727665116
2	62270	56.5	949.19616565092
2	62273	56.51	949.33505465069
2	62274	56.52	949.47394365045
2	62293	56.53	949.61283265022
2	62294	56.54	949.75172164998
2	62295	56.55	949.89061064975
2	62314	56.56	950.02949964951
2	62315	56.57	950.16838864928
2	62316	56.58	950.30727764905
2	62317	56.59	950.44616664881
2	62318	56.6	950.58505564858
2	62321	56.61	950.72394464835
2	62322	56.62	950.86283364812
2	62341	56.63	951.00172264789
2	62342	56.64	951.14061164766
2	62343	56.65	951.27950064743
2	62362	56.66	951.4183896472
2	62363	56.67	951.55727864697
2	62364	56.68	951.69616764674
2	62365	56.69	951.83505664651
2	62366	56.7	951.97394564628
2	62369	56.71	952.11283464605
2	62370	56.72	952.25172364582
2	62389	56.73	952.3906126456
2	62390	56.74	952.52950164537
2	62391	56.75	952.66839064514
2	62410	56.76	952.80727964491
2	62411	56.77	952.94616864469
2	62412	56.78	953.08505764446
2	62413	56.79	953.22394664424
2	62414	56.8	953.36283564401
2	62417	56.81	953.50172464379
2	62418	56.82	953.64061364356
2	62437	56.83	953.77950264334
2	62438	56.84	953.91839164312
2	62439	56.85	954.05728064289
2	62458	56.86	954.19616964267
2	62459	56.87	954.33505864245
2	62460	56.88	954.47394764222
2	62461	56.89	954.612836642
2	62462	56.9	954.75172564178
2	62465	56.91	954.89061464156
2	62466	56.92	955.02950364134
2	62485	56.93	955.16839264112
2	62486	56.94	955.3072816409
2	62487	56.95	955.44617064068
2	62506	56.96	955.58505964046
2	62507	56.97	955.72394864024
2	62508	56.98	955.86283764002
2	62509	56.99	956.0017266398
2	62512	57	956.14061563958
2	62515	57.01	956.27950463937
2	62516	57.02	956.41839363915
2	62535	57.03	956.55728263893
2	62536	57.04	956.69617163871
2	62537	57.05	956.8350606385
2	62556	57.06	956.97394963828
2	62557	57.07	957.11283863806
2	62558	57.08	957.25172763785
2	62559	57.09	957.39061663763
2	62560	57.1	957.52950563742
2	62563	57.11	957.66839463721
2	62564	57.12	957.80728363699
2	62583	57.13	957.94617263678
2	62584	57.14	958.08506163656
2	62585	57.15	958.22395063635
2	62604	57.16	958.36283963614
2	62605	57.17	958.50172863593
2	62606	57.18	958.64061763571
2	62607	57.19	958.7795066355
2	62608	57.2	958.91839563529
2	62611	57.21	959.05728463508
2	62612	57.22	959.19617363487
2	62631	57.23	959.33506263466
2	62632	57.24	959.47395163445
2	62633	57.25	959.61284063424
2	62652	57.26	959.75172963403
2	62653	57.27	959.89061863382
2	62654	57.28	960.02950763361
2	62655	57.29	960.1683966334
2	62656	57.3	960.30728563319
2	62659	57.31	960.44617463299
2	62660	57.32	960.58506363278
2	62679	57.33	960.72395263257
2	62680	57.34	960.86284163236
2	62681	57.35	961.00173063216
2	62700	57.36	961.14061963195
2	62701	57.37	961.27950863174
2	62702	57.38	961.41839763154
2	62703	57.39	961.55728663133
2	62704	57.4	961.69617563113
2	62707	57.41	961.83506463092
2	62708	57.42	961.97395363072
2	62727	57.43	962.11284263052
2	62728	57.44	962.25173163031
2	62729	57.45	962.39062063011
2	62748	57.46	962.52950962991
2	62749	57.47	962.6683986297
2	62750	57.48	962.8072876295
2	62751	57.49	962.9461766293
2	62752	57.5	963.0850656291
2	62755	57.51	963.22395462889
2	62756	57.52	963.36284362869
2	62775	57.53	963.50173262849
2	62776	57.54	963.64062162829
2	62777	57.55	963.77951062809
2	62796	57.56	963.91839962789
2	62797	57.57	964.05728862769
2	62798	57.58	964.19617762749
2	62799	57.59	964.33506662729
2	62800	57.6	964.4739556271
2	62803	57.61	964.6128446269
2	62804	57.62	964.7517336267
2	62823	57.63	964.8906226265
2	62824	57.64	965.0295116263
2	62825	57.65	965.16840062611
2	62844	57.66	965.30728962591
2	62845	57.67	965.44617862571
2	62846	57.68	965.58506762552
2	62847	57.69	965.72395662532
2	62848	57.7	965.86284562513
2	62851	57.71	966.00173462493
2	62852	57.72	966.14062362474
2	62871	57.73	966.27951262454
2	62872	57.74	966.41840162435
2	62873	57.75	966.55729062415
2	62892	57.76	966.69617962396
2	62893	57.77	966.83506862377
2	62894	57.78	966.97395762357
2	62895	57.79	967.11284662338
2	62896	57.8	967.25173562319
2	62899	57.81	967.39062462299
2	62900	57.82	967.5295136228
2	62919	57.83	967.66840262261
2	62920	57.84	967.80729162242
2	62921	57.85	967.94618062223
2	62940	57.86	968.08506962204
2	62941	57.87	968.22395862185
2	62942	57.88	968.36284762166
2	62943	57.89	968.50173662147
2	62944	57.9	968.64062562128
2	62947	57.91	968.77951462109
2	62948	57.92	968.9184036209
2	62967	57.93	969.05729262071
2	62968	57.94	969.19618162052
2	62969	57.95	969.33507062033
2	62988	57.96	969.47395962015
2	62989	57.97	969.61284861996
2	62990	57.98	969.75173761977
2	62991	57.99	969.89062661958
2	62994	58	970.0295156194
2	62997	58.01	970.16840461921
2	62998	58.02	970.30729361903
2	63017	58.03	970.44618261884
2	63018	58.04	970.58507161865
2	63019	58.05	970.72396061847
2	63038	58.06	970.86284961828
2	63039	58.07	971.0017386181
2	63040	58.08	971.14062761791
2	63041	58.09	971.27951661773
2	63042	58.1	971.41840561755
2	63045	58.11	971.55729461736
2	63046	58.12	971.69618361718
2	63065	58.13	971.835072617
2	63066	58.14	971.97396161681
2	63067	58.15	972.11285061663
2	63086	58.16	972.25173961645
2	63087	58.17	972.39062861627
2	63088	58.18	972.52951761609
2	63089	58.19	972.66840661591
2	63090	58.2	972.80729561573
2	63093	58.21	972.94618461554
2	63094	58.22	973.08507361536
2	63113	58.23	973.22396261518
2	63114	58.24	973.362851615
2	63115	58.25	973.50174061482
2	63134	58.26	973.64062961465
2	63135	58.27	973.77951861447
2	63136	58.28	973.91840761429
2	63137	58.29	974.05729661411
2	63138	58.3	974.19618561393
2	63141	58.31	974.33507461375
2	63142	58.32	974.47396361358
2	63161	58.33	974.6128526134
2	63162	58.34	974.75174161322
2	63163	58.35	974.89063061304
2	63182	58.36	975.02951961287
2	63183	58.37	975.16840861269
2	63184	58.38	975.30729761252
2	63185	58.39	975.44618661234
2	63186	58.4	975.58507561217
2	63189	58.41	975.72396461199
2	63190	58.42	975.86285361182
2	63209	58.43	976.00174261164
2	63210	58.44	976.14063161147
2	63211	58.45	976.27952061129
2	63230	58.46	976.41840961112
2	63231	58.47	976.55729861095
2	63232	58.48	976.69618761077
2	63233	58.49	976.8350766106
2	63234	58.5	976.97396561043
2	63237	58.51	977.11285461025
2	63238	58.52	977.25174361008
2	63257	58.53	977.39063260991
2	63258	58.54	977.52952160974
2	63259	58.55	977.66841060957
2	63278	58.56	977.8072996094
2	63279	58.57	977.94618860923
2	63280	58.58	978.08507760906
2	63281	58.59	978.22396660889
2	63282	58.6	978.36285560872
2	63285	58.61	978.50174460855
2	63286	58.62	978.64063360838
2	63305	58.63	978.77952260821
2	63306	58.64	978.91841160804
2	63307	58.65	979.05730060787
2	63326	58.66	979.1961896077
2	63327	58.67	979.33507860753
2	63328	58.68	979.47396760736
2	63329	58.69	979.6128566072
2	63330	58.7	979.75174560703
2	63333	58.71	979.89063460686
2	63334	58.72	980.0295236067
2	63353	58.73	980.16841260653
2	63354	58.74	980.30730160636
2	63355	58.75	980.4461906062
2	63374	58.76	980.58507960603
2	63375	58.77	980.72396860587
2	63376	58.78	980.8628576057
2	63377	58.79	981.00174660554
2	63378	58.8	981.14063560537
2	63381	58.81	981.27952460521
2	63382	58.82	981.41841360504
2	63401	58.83	981.55730260488
2	63402	58.84	981.69619160471
2	63403	58.85	981.83508060455
2	63422	58.86	981.97396960439
2	63423	58.87	982.11285860422
2	63424	58.88	982.25174760406
2	63425	58.89	982.3906366039
2	63426	58.9	982.52952560374
2	63429	58.91	982.66841460358
2	63430	58.92	982.80730360341
2	63449	58.93	982.94619260325
2	63450	58.94	983.08508160309
2	63451	58.95	983.22397060293
2	63470	58.96	983.36285960277
2	63471	58.97	983.50174860261
2	63472	58.98	983.64063760245
2	63473	58.99	983.77952660229
2	63476	59	983.91841560213
2	63479	59.01	984.05730460197
2	63480	59.02	984.19619360181
2	63499	59.03	984.33508260165
2	63500	59.04	984.47397160149
2	63501	59.05	984.61286060133
2	63520	59.06	984.75174960118
2	63521	59.07	984.89063860102
2	63522	59.08	985.02952760086
2	63523	59.09	985.1684166007
2	63524	59.1	985.30730560055
2	63527	59.11	985.44619460039
2	63528	59.12	985.58508360023
2	63547	59.13	985.72397260008
2	63548	59.14	985.86286159992
2	63549	59.15	986.00175059976
2	63568	59.16	986.14063959961
2	63569	59.17	986.27952859945
2	63570	59.18	986.4184175993
2	63571	59.19	986.55730659914
2	63572	59.2	986.69619559899
2	63575	59.21	986.83508459883
2	63576	59.22	986.97397359868
2	63595	59.23	987.11286259852
2	63596	59.24	987.25175159837
2	63597	59.25	987.39064059822
2	63616	59.26	987.52952959806
2	63617	59.27	987.66841859791
2	63618	59.28	987.80730759776
2	63619	59.29	987.94619659761
2	63620	59.3	988.08508559745
2	63623	59.31	988.2239745973
2	63624	59.32	988.36286359715
2	63643	59.33	988.501752597
2	63644	59.34	988.64064159685
2	63645	59.35	988.77953059669
2	63664	59.36	988.91841959654
2	63665	59.37	989.05730859639
2	63666	59.38	989.19619759624
2	63667	59.39	989.33508659609
2	63668	59.4	989.47397559594
2	63671	59.41	989.61286459579
2	63672	59.42	989.75175359564
2	63691	59.43	989.89064259549
2	63692	59.44	990.02953159534
2	63693	59.45	990.1684205952
2	63712	59.46	990.30730959505
2	63713	59.47	990.4461985949
2	63714	59.48	990.58508759475
2	63715	59.49	990.7239765946
2	63716	59.5	990.86286559446
2	63719	59.51	991.00175459431
2	63720	59.52	991.14064359416
2	63739	59.53	991.27953259401
2	63740	59.54	991.41842159387
2	63741	59.55	991.55731059372
2	63760	59.56	991.69619959357
2	63761	59.57	991.83508859343
2	63762	59.58	991.97397759328
2	63763	59.59	992.11286659314
2	63764	59.6	992.25175559299
2	63767	59.61	992.39064459285
2	63768	59.62	992.5295335927
2	63787	59.63	992.66842259256
2	63788	59.64	992.80731159241
2	63789	59.65	992.94620059227
2	63808	59.66	993.08508959212
2	63809	59.67	993.22397859198
2	63810	59.68	993.36286759183
2	63811	59.69	993.50175659169
2	63812	59.7	993.64064559155
2	63815	59.71	993.77953459141
2	63816	59.72	993.91842359126
2	63835	59.73	994.05731259112
2	63836	59.74	994.19620159098
2	63837	59.75	994.33509059084
2	63856	59.76	994.47397959069
2	63857	59.77	994.61286859055
2	63858	59.78	994.75175759041
2	63859	59.79	994.89064659027
2	63860	59.8	995.02953559013
2	63863	59.81	995.16842458999
2	63864	59.82	995.30731358985
2	63883	59.83	995.44620258971
2	63884	59.84	995.58509158957
2	63885	59.85	995.72398058943
2	63904	59.86	995.86286958929
2	63905	59.87	996.00175858915
2	63906	59.88	996.14064758901
2	63907	59.89	996.27953658887
2	63908	59.9	996.41842558873
2	63911	59.91	996.55731458859
2	63912	59.92	996.69620358845
2	63931	59.93	996.83509258832
2	63932	59.94	996.97398158818
2	63933	59.95	997.11287058804
2	63952	59.96	997.2517595879
2	63953	59.97	997.39064858777
2	63954	59.98	997.52953758763
2	63955	59.99	997.66842658749
2	63958	60	997.80731558736
2	63961	60.01	997.94620458722
2	63962	60.02	998.08509358708
2	63981	60.03	998.22398258695
2	63982	60.04	998.36287158681
2	63983	60.05	998.50176058668
2	64002	60.06	998.64064958654
2	64003	60.07	998.77953858641
2	64004	60.08	998.91842758627
2	64005	60.09	999.05731658614
2	64006	60.1	999.196205586
2	64009	60.11	999.33509458587
2	64010	60.12	999.47398358573
2	64029	60.13	999.6128725856
2	64030	60.14	999.75176158547
2	64031	60.15	999.89065058533
2	64050	60.16	1000.0295395852
2	64051	60.17	1000.1684285851
2	64052	60.18	1000.3073175849
2	64053	60.19	1000.4462065848
2	64054	60.2	1000.5850955847
2	64057	60.21	1000.7239845845
2	64058	60.22	1000.8628735844
2	64077	60.23	1001.0017625843
2	64078	60.24	1001.1406515841
2	64079	60.25	1001.279540584
2	64098	60.26	1001.4184295839
2	64099	60.27	1001.5573185837
2	64100	60.28	1001.6962075836
2	64101	60.29	1001.8350965835
2	64102	60.3	1001.9739855834
2	64105	60.31	1002.1128745832
2	64106	60.32	1002.2517635831
2	64125	60.33	1002.390652583
2	64126	60.34	1002.5295415828
2	64127	60.35	1002.6684305827
2	64146	60.36	1002.8073195826
2	64147	60.37	1002.9462085824
2	64148	60.38	1003.0850975823
2	64149	60.39	1003.2239865822
2	64150	60.4	1003.3628755821
2	64153	60.41	1003.5017645819
2	64154	60.42	1003.6406535818
2	64173	60.43	1003.7795425817
2	64174	60.44	1003.9184315816
2	64175	60.45	1004.0573205814
2	64194	60.46	1004.1962095813
2	64195	60.47	1004.3350985812
2	64196	60.48	1004.473987581
2	64197	60.49	1004.6128765809
2	64198	60.5	1004.7517655808
2	64201	60.51	1004.8906545807
2	64202	60.52	1005.0295435805
2	64221	60.53	1005.1684325804
2	64222	60.54	1005.3073215803
2	64223	60.55	1005.4462105802
2	64242	60.56	1005.58509958
2	64243	60.57	1005.7239885799
2	64244	60.58	1005.8628775798
2	64245	60.59	1006.0017665797
2	64246	60.6	1006.1406555795
2	64249	60.61	1006.2795445794
2	64250	60.62	1006.4184335793
2	64269	60.63	1006.5573225792
2	64270	60.64	1006.696211579
2	64271	60.65	1006.8351005789
2	64290	60.66	1006.9739895788
2	64291	60.67	1007.1128785787
2	64292	60.68	1007.2517675786
2	64293	60.69	1007.3906565784
2	64294	60.7	1007.5295455783
2	64297	60.71	1007.6684345782
2	64298	60.72	1007.8073235781
2	64317	60.73	1007.9462125779
2	64318	60.74	1008.0851015778
2	64319	60.75	1008.2239905777
2	64338	60.76	1008.3628795776
2	64339	60.77	1008.5017685775
2	64340	60.78	1008.6406575773
2	64341	60.79	1008.7795465772
2	64342	60.8	1008.9184355771
2	64345	60.81	1009.057324577
2	64346	60.82	1009.1962135769
2	64365	60.83	1009.3351025767
2	64366	60.84	1009.4739915766
2	64367	60.85	1009.6128805765
2	64386	60.86	1009.7517695764
2	64387	60.87	1009.8906585763
2	64388	60.88	1010.0295475761
2	64389	60.89	1010.168436576
2	64390	60.9	1010.3073255759
2	64393	60.91	1010.4462145758
2	64394	60.92	1010.5851035757
2	64413	60.93	1010.7239925755
2	64414	60.94	1010.8628815754
2	64415	60.95	1011.0017705753
2	64434	60.96	1011.1406595752
2	64435	60.97	1011.2795485751
2	64436	60.98	1011.418437575
2	64437	60.99	1011.5573265748
2	64440	61	1011.6962155747
2	64443	61.01	1011.8351045746
2	64444	61.02	1011.9739935745
2	64463	61.03	1012.1128825744
2	64464	61.04	1012.2517715743
2	64465	61.05	1012.3906605741
2	64484	61.06	1012.529549574
2	64485	61.07	1012.6684385739
2	64486	61.08	1012.8073275738
2	64487	61.09	1012.9462165737
2	64488	61.1	1013.0851055736
2	64491	61.11	1013.2239945734
2	64492	61.12	1013.3628835733
2	64511	61.13	1013.5017725732
2	64512	61.14	1013.6406615731
2	64513	61.15	1013.779550573
2	64532	61.16	1013.9184395729
2	64533	61.17	1014.0573285728
2	64534	61.18	1014.1962175726
2	64535	61.19	1014.3351065725
2	64536	61.2	1014.4739955724
2	64539	61.21	1014.6128845723
2	64540	61.22	1014.7517735722
2	64559	61.23	1014.8906625721
2	64560	61.24	1015.029551572
2	64561	61.25	1015.1684405719
2	64580	61.26	1015.3073295717
2	64581	61.27	1015.4462185716
2	64582	61.28	1015.5851075715
2	64583	61.29	1015.7239965714
2	64584	61.3	1015.8628855713
2	64587	61.31	1016.0017745712
2	64588	61.32	1016.1406660221
2	64599	61.33	1016.2795647778
2	64600	61.34	1016.4184755972
2	64601	61.35	1016.5574031456
2	64602	61.36	1016.6963519969
2	64603	61.37	1016.8353266355
2	64604	61.38	1016.9743314577
2	64605	61.39	1017.1133707735
2	64606	61.4	1017.2524488086
2	64608	61.41	1017.3915697058
2	64609	61.42	1017.5307375265
2	64620	61.43	1017.6699562528
2	64621	61.44	1017.8092297883
2	64622	61.45	1017.9485619604
2	64623	61.46	1018.0879565212
2	64624	61.47	1018.2274171495
2	64625	61.48	1018.3669474518
2	64626	61.49	1018.5065509638
2	64627	61.5	1018.646231152
2	64629	61.51	1018.785991415
2	64630	61.52	1018.9258350845
2	64641	61.53	1019.0657654273
2	64642	61.54	1019.2057856456
2	64643	61.55	1019.3458988793
2	64644	61.56	1019.4861082064
2	64645	61.57	1019.6264166448
2	64646	61.58	1019.766827153
2	64647	61.59	1019.9073426316
2	64648	61.6	1020.0479659244
2	64650	61.61	1020.1886998192
2	64651	61.62	1020.3295470495
2	64662	61.63	1020.4705102949
2	64663	61.64	1020.6115921824
2	64664	61.65	1020.7527952879
2	64665	61.66	1020.8941221364
2	64666	61.67	1021.0355752036
2	64667	61.68	1021.1771569165
2	64668	61.69	1021.3188696547
2	64669	61.7	1021.4607157509
2	64671	61.71	1021.6026974923
2	64672	61.72	1021.7448171211
2	64683	61.73	1021.8870768356
2	64684	61.74	1022.029478791
2	64685	61.75	1022.1720251002
2	64686	61.76	1022.3147178347
2	64687	61.77	1022.4575590254
2	64688	61.78	1022.6005506634
2	64689	61.79	1022.7436947006
2	64690	61.8	1022.8869930508
2	64692	61.81	1023.0304475902
2	64693	61.82	1023.1740601582
2	64704	61.83	1023.3178325583
2	64705	61.84	1023.4617665583
2	64706	61.85	1023.6058638917
2	64707	61.86	1023.7501262577
2	64708	61.87	1023.8945553225
2	64709	61.88	1024.0391527193
2	64710	61.89	1024.1839200495
2	64711	61.9	1024.328858883
2	64713	61.91	1024.473970759
2	64714	61.92	1024.6192571865
2	64725	61.93	1024.7647196448

