version 3
run OvertakeNoGui-417-20241104-10:11:07-93992
attr configname OvertakeNoGui
attr datetime 20241104-10:11:07
attr datetimef 20241104-101107
attr experiment OvertakeNoGui
attr inifile omnetpp.ini
attr iterationvars "$leaderHeadway=1.2, $leaderSpeed=50, $controller=0, $pCSpeed=64, $pDeltaC=506"
attr iterationvarsd leaderHeadway=1.2/leaderSpeed=50/controller=0/pCSpeed=64/pDeltaC=506
attr iterationvarsf leaderHeadway=1.2,leaderSpeed=50,controller=0,pCSpeed=64,pDeltaC=506-
attr measurement "$leaderHeadway=1.2, $leaderSpeed=50, $controller=0, $pCSpeed=64, $pDeltaC=506"
attr network Overtake
attr processid 93992
attr repetition 0
attr replication #0
attr resultdir results
attr runnumber 417
attr seedset 0
itervar controller 0
itervar leaderHeadway 1.2
itervar leaderSpeed 50
itervar pCSpeed 64
itervar pDeltaC 506
config image-path ../../../../veins/images;../../images
config *.manager.command "\"sumo\""
config *.manager.ignoreGuiCommands true
config *.node[*].scenario_type "\"OvertakeScenario\""
config output-vector-file results/OvertakeNoGui_64_506_0.vec
config output-scalar-file results/OvertakeNoGui_64_506_0.sca
config cmdenv-express-mode false
config cmdenv-autoflush true
config cmdenv-status-frequency 10s
config num-rngs 6
config cmdenv-output-file log.txt
config cmdenv-redirect-output true
config network Overtake
config debug-on-errors true
config print-undisposed true
config *.playgroundSizeX 65000m
config *.playgroundSizeY 25000m
config *.playgroundSizeZ 50m
config sim-time-limit "360 s"
config *.annotations.draw false
config *.obstacles.debug false
config *.world.useTorus false
config *.world.use2D false
config *.manager.updateInterval 0.01s
config *.manager.host "\"localhost\""
config *.manager.moduleType "\"vtypeauto=org.car2x.plexe.PlatoonCar vtypehuman=0\""
config *.manager.moduleName "\"vtypeauto=node vtypehuman=0\""
config *.manager.moduleDisplayString "\"\""
config *.manager.autoShutdown true
config *.manager.margin 25
config *.manager.order -1
config *.connectionManager.sendDirect true
config *.connectionManager.maxInterfDist 2600m
config *.connectionManager.drawMaxIntfDist false
config *.**.nic.mac1609_4.useServiceChannel false
config *.**.nic.mac1609_4.txPower 100mW
config *.**.nic.mac1609_4.bitrate 6Mbps
config *.**.nic.mac1609_4.useAcks true
config *.**.nic.mac1609_4.ackErrorRate 0.0
config *.**.nic.mac1609_4.frameErrorRate 0.0
config *.**.nic.phy80211p.minPowerLevel -94dBm
config *.**.nic.phy80211p.maxTXPower 100mW
config *.**.nic.phy80211p.useNoiseFloor true
config *.**.nic.phy80211p.noiseFloor -95dBm
config *.**.nic.phy80211p.decider "xmldoc(\"config.xml\")"
config *.**.nic.phy80211p.analogueModels "xmldoc(\"config.xml\")"
config *.**.nic.phy80211p.usePropagationDelay true
config *.node[*].mobility.x 0
config *.node[*].mobility.y 0
config *.node[*].mobility.z 1.895
config *.shockwave[*].mobility.x 0
config *.shockwave[*].mobility.y 0
config *.shockwave[*].mobility.z 1.895
config seed-set 0
config **.seed 0
config *.node[*].prot.rng-0 2
config *.node[*].appl.rng-0 3
config *.node[*].scenario.rng-0 4
config *.manager.configFile "\"./sumocfg/overtake.sumo.cfg\""
config *.manager.launchConfig "xmldoc(\"./sumocfg/overtake.launchd.xml\")"
config *.node[*].helper_type "\"PositionHelper\""
config *.node[*].scenario.caccC1 0.5
config *.node[*].scenario.caccXi 1
config *.node[*].scenario.caccOmegaN "0.2 Hz"
config *.node[*].scenario.caccSpacing "5 m"
config *.node[*].scenario.engineTau "0.5 s"
config *.node[*].scenario.ploegH "0.5 s"
config *.node[*].scenario.ploegKp 0.2
config *.node[*].scenario.ploegKd 0.7
config *.node[*].scenario.useRealisticEngine false
config *.node[*].scenario.targetController "\"CACC\""
config *.node[*].scenario.accHeadway "0.1 s"
config *.node[*].scenario.leaderHeadway "1.2 s"
config *.node[*].scenario.leaderSpeed "50 kmph"
config *.node[*].appl_type "\"OvertakeApp\""
config *.node[*].appl.*.scalar-recording true
config *.node[*].appl.*.vector-recording true
config *.node[*].appl.overtakeManeuver "\"OvertakeManeuver\""
config *.node[*].protocol_type "\"SimplePlatooningBeaconing\""
config *.node[*].prot.*.scalar-recording true
config *.node[*].prot.*.vector-recording true
config *.node[*].prot.beaconingInterval "0.1 s"
config *.node[*].prot.priority 4
config *.node[*].prot.packetSize 200
config *.node[*].prot.useControllerAcceleration true
config **.traffic_type "\"OvertakeTrafficManager\""
config **.traffic.platoonInsertTime "0.1 s"
config **.traffic.platooningVType "\"vtypeauto\""
config **.numericController 0
config **.traffic.platoonInsertDistance 5m
config **.traffic.platoonInsertHeadway 0s
config **.traffic.platoonLeaderHeadway 1.2s
config **.traffic.platoonASpeed 50kmph
config **.traffic.platoonBSpeed 100kmph
config **.traffic.platoonCSpeed 64kmph
config **.traffic.platoonSizeA 2
config **.traffic.platoonSizeB 1
config **.traffic.platoonSizeC 1
config **.traffic.initialPositionDeltaA 150
config **.traffic.initialPositionDeltaB 50
config **.traffic.initialPositionDeltaC 506
config **.traffic.controller "\"CACC\""
config **.scalar-recording true
config **.vector-recording true

vector 0 Overtake.node[0].mobility posx ETV
vector 1 Overtake.node[0].mobility posy ETV
vector 2 Overtake.node[1].mobility posx ETV
vector 3 Overtake.node[1].mobility posy ETV
vector 4 Overtake.node[2].mobility posx ETV
vector 5 Overtake.node[2].mobility posy ETV
vector 6 Overtake.node[3].mobility posx ETV
vector 7 Overtake.node[3].mobility posy ETV
vector 8 Overtake.node[0].mobility speed ETV
vector 9 Overtake.node[1].mobility speed ETV
vector 10 Overtake.node[2].mobility speed ETV
vector 11 Overtake.node[3].mobility speed ETV
vector 12 Overtake.node[0].mobility acceleration ETV
vector 13 Overtake.node[0].mobility co2emission ETV
vector 14 Overtake.node[1].mobility acceleration ETV
vector 15 Overtake.node[1].mobility co2emission ETV
vector 16 Overtake.node[2].mobility acceleration ETV
vector 17 Overtake.node[2].mobility co2emission ETV
vector 18 Overtake.node[3].mobility acceleration ETV
vector 19 Overtake.node[3].mobility co2emission ETV
vector 20 Overtake.node[0].appl distance ETV
vector 21 Overtake.node[0].appl relativeSpeed ETV
vector 22 Overtake.node[0].appl nodeId ETV
vector 23 Overtake.node[0].appl acceleration ETV
vector 24 Overtake.node[0].appl controllerAcceleration ETV
vector 25 Overtake.node[0].appl speed ETV
vector 26 Overtake.node[0].appl posx ETV
vector 27 Overtake.node[0].appl posy ETV
vector 28 Overtake.node[1].appl distance ETV
vector 29 Overtake.node[1].appl relativeSpeed ETV
vector 30 Overtake.node[1].appl nodeId ETV
vector 31 Overtake.node[1].appl acceleration ETV
vector 32 Overtake.node[1].appl controllerAcceleration ETV
vector 33 Overtake.node[1].appl speed ETV
vector 34 Overtake.node[1].appl posx ETV
vector 35 Overtake.node[1].appl posy ETV
vector 36 Overtake.node[2].appl distance ETV
vector 37 Overtake.node[2].appl relativeSpeed ETV
vector 38 Overtake.node[2].appl nodeId ETV
vector 39 Overtake.node[2].appl acceleration ETV
vector 40 Overtake.node[2].appl controllerAcceleration ETV
vector 41 Overtake.node[2].appl speed ETV
vector 42 Overtake.node[2].appl posx ETV
vector 43 Overtake.node[2].appl posy ETV
vector 44 Overtake.node[3].appl distance ETV
vector 45 Overtake.node[3].appl relativeSpeed ETV
vector 46 Overtake.node[3].appl nodeId ETV
vector 47 Overtake.node[3].appl acceleration ETV
vector 48 Overtake.node[3].appl controllerAcceleration ETV
vector 49 Overtake.node[3].appl speed ETV
vector 50 Overtake.node[3].appl posx ETV
vector 51 Overtake.node[3].appl posy ETV
vector 52 Overtake.node[1].prot leaderDelay ETV
vector 53 Overtake.node[1].prot leaderDelayId ETV
vector 54 Overtake.node[1].prot frontDelay ETV
vector 55 Overtake.node[1].prot frontDelayId ETV
vector 56 Overtake.node[0].prot nodeId ETV
vector 57 Overtake.node[0].prot busyTime ETV
vector 58 Overtake.node[0].prot collisions ETV
vector 59 Overtake.node[1].prot nodeId ETV
vector 60 Overtake.node[1].prot busyTime ETV
vector 61 Overtake.node[1].prot collisions ETV
vector 62 Overtake.node[2].prot nodeId ETV
vector 63 Overtake.node[2].prot busyTime ETV
vector 64 Overtake.node[2].prot collisions ETV
vector 65 Overtake.node[3].prot nodeId ETV
vector 66 Overtake.node[3].prot busyTime ETV
vector 67 Overtake.node[3].prot collisions ETV
48	26	0.21	-0.00218518
48	176	0.31	-0.00213419
48	326	0.41	-0.00205408
48	476	0.51	-0.00195152
48	626	0.61	-0.00183238
48	776	0.71	-0.00170178
48	926	0.81	-0.00156412
48	1076	0.91	-0.00142314
48	1230	1.01	-0.00128196
48	1381	1.11	-0.00114315
48	1532	1.21	-0.00100877
48	1683	1.31	-0.000880447
48	2046	1.41	-0.000759381
48	2196	1.51	-0.000646445
48	2346	1.61	-0.000542204
48	2496	1.71	-0.000446965
48	2646	1.81	-0.000360819
48	2796	1.91	-0.000283678
48	2950	2.01	-0.000215307
48	3100	2.11	-0.000155357
48	3250	2.21	-0.000103391
48	3400	2.31	-5.89069e-05
48	3763	2.41	-2.13575e-05
48	3914	2.51	9.82919e-06
48	4064	2.61	3.52368e-05
48	4214	2.71	5.54479e-05
48	4364	2.81	7.10335e-05
48	4514	2.91	8.25451e-05
48	4668	3.01	9.05081e-05
48	4818	3.11	9.54172e-05
48	4968	3.21	9.7733e-05
48	5118	3.31	9.78798e-05
48	5269	3.41	9.62447e-05
48	5676	3.51	9.31771e-05
48	5826	3.61	8.89894e-05
48	5976	3.71	8.39579e-05
48	6126	3.81	7.83245e-05
48	6276	3.91	7.22983e-05
48	6430	4.01	6.6058e-05
48	6580	4.11	5.9754e-05
48	6730	4.21	5.35107e-05
48	6880	4.31	4.74294e-05
48	7030	4.41	4.15898e-05
48	7393	4.51	3.60534e-05
48	7544	4.61	3.0865e-05
48	7694	4.71	2.60551e-05
48	7844	4.81	2.16419e-05
48	7994	4.91	1.76335e-05
48	8148	5.01	1.40289e-05
48	8298	5.11	1.08202e-05
48	8448	5.21	7.99392e-06
48	8598	5.31	5.532e-06
48	8748	5.41	3.41315e-06
48	8899	5.51	1.61374e-06
48	9262	5.61	1.08654e-07
48	9412	5.71	-1.12799e-06
48	9562	5.81	-2.12224e-06
48	9712	5.91	-2.89981e-06
48	9866	6.01	-3.48567e-06
48	10016	6.11	-3.90376e-06
48	10166	6.21	-4.17673e-06
48	10316	6.31	-4.32574e-06
48	10466	6.41	-4.3704e-06
48	10616	6.51	-4.32865e-06
48	11023	6.61	-4.21676e-06
48	11174	6.71	-4.04934e-06
48	11324	6.81	-3.83937e-06
48	11474	6.91	-3.59826e-06
48	11628	7.01	-3.33592e-06
48	11778	7.11	-3.06089e-06
48	11928	7.21	-2.78036e-06
48	12078	7.31	-2.50036e-06
48	12228	7.41	-2.22582e-06
48	12378	7.51	-1.96068e-06
48	12529	7.61	-1.708e-06
48	12892	7.71	-1.47009e-06
48	13042	7.81	-1.24855e-06
48	13192	7.91	-1.04441e-06
48	13346	8.01	-8.58219e-07
48	13496	8.11	-6.90082e-07
48	13646	8.21	-5.39774e-07
48	13796	8.31	-4.06787e-07
48	13946	8.41	-2.90396e-07
48	14096	8.51	-1.89707e-07
48	14246	8.61	-1.03704e-07
48	14609	8.71	-3.12909e-08
48	14760	8.81	2.86736e-08
48	14910	8.91	7.73515e-08
48	15064	9.01	1.15897e-07
48	15214	9.11	1.45439e-07
48	15364	9.21	1.67065e-07
48	15514	9.31	1.81809e-07
48	15664	9.41	1.90644e-07
48	15814	9.51	1.94472e-07
48	15964	9.61	1.94125e-07
48	16115	9.71	1.90358e-07
48	16522	9.81	1.83853e-07
48	16672	9.91	1.75219e-07
48	16826	10.01	1.64994e-07
48	16976	10.11	1.53647e-07
48	17126	10.21	1.41582e-07
48	17276	10.31	1.29146e-07
48	17426	10.41	1.16627e-07
48	17576	10.51	1.04266e-07
48	17726	10.61	9.22547e-08
48	17876	10.71	8.07471e-08
48	18239	10.81	6.98584e-08
48	18390	10.91	5.96732e-08
48	18544	11.01	5.02471e-08
48	18694	11.11	4.16133e-08
48	18844	11.21	3.37845e-08
48	18994	11.31	2.67558e-08
48	19144	11.41	2.05102e-08
48	19294	11.51	1.50187e-08
48	19444	11.61	1.02442e-08
48	19594	11.71	6.14406e-09
48	19745	11.81	2.67022e-09
48	20108	11.91	-2.27374e-10
48	20262	12.01	-2.60059e-09
48	20412	12.11	-4.50058e-09
48	20562	12.21	-5.97851e-09
48	20712	12.31	-7.08376e-09
48	20862	12.41	-7.86322e-09
48	21012	12.51	-8.36167e-09
48	21162	12.61	-8.62066e-09
48	21312	12.71	-8.67857e-09
48	21462	12.81	-8.57057e-09
48	21845	12.91	-8.32792e-09
48	22000	13.01	-7.97975e-09
48	22150	13.11	-7.55094e-09
48	22300	13.21	-7.06351e-09
48	22450	13.31	-6.53699e-09
48	22600	13.41	-5.98774e-09
48	22750	13.51	-5.42997e-09
48	22900	13.61	-4.87468e-09
48	23050	13.71	-4.33182e-09
48	23200	13.81	-3.80886e-09
48	23350	13.91	-3.31148e-09
48	23504	14.01	-2.8443e-09
48	23654	14.11	-2.40981e-09
48	23804	14.21	-2.01013e-09
48	23954	14.31	-1.64633e-09
48	24104	14.41	-1.31806e-09
48	24254	14.51	-1.02531e-09
48	24404	14.61	-7.66676e-10
48	24554	14.71	-5.40723e-10
48	24704	14.81	-3.46034e-10
48	24854	14.91	-1.79767e-10
48	25008	15.01	-4.01457e-11
48	25158	15.11	7.49623e-11
48	25308	15.21	1.68043e-10
48	25458	15.31	2.41585e-10
48	25608	15.41	2.97362e-10
48	25758	15.51	3.37863e-10
48	25908	15.61	3.64864e-10
48	26058	15.71	3.80851e-10
48	26208	15.81	3.86891e-10
48	26358	15.91	3.84759e-10
48	26512	16.01	3.76232e-10
48	26662	16.11	3.62377e-10
48	26812	16.21	3.44613e-10
48	26962	16.31	3.24007e-10
48	27112	16.41	3.00915e-10
48	27262	16.51	2.76756e-10
48	27412	16.61	2.52243e-10
48	27562	16.71	2.27374e-10
48	27712	16.81	2.0286e-10
48	27862	16.91	1.79057e-10
48	28016	17.01	1.56319e-10
48	28166	17.11	1.35003e-10
48	28316	17.21	1.15108e-10
48	28466	17.31	9.66338e-11
48	28616	17.41	7.99361e-11
48	28766	17.51	6.46594e-11
48	28916	17.61	5.08038e-11
48	29066	17.71	3.83693e-11
48	29216	17.81	2.73559e-11
48	29366	17.91	1.77636e-11
48	29520	18.01	9.59233e-12
48	29670	18.11	2.84217e-12
48	29820	18.21	-2.84217e-12
48	29970	18.31	-7.4607e-12
48	30120	18.41	-1.13687e-11
48	30270	18.51	-1.42109e-11
48	30420	18.61	-1.63425e-11
48	30570	18.71	-1.77636e-11
48	30720	18.81	-1.84741e-11
48	30870	18.91	-1.88294e-11
48	31024	19.01	-1.88294e-11
48	31174	19.11	-1.88294e-11
48	31324	19.21	-1.81188e-11
48	31474	19.31	-1.7053e-11
48	31624	19.41	-1.63425e-11
48	31774	19.51	-1.52767e-11
48	31924	19.61	-1.45661e-11
48	32074	19.71	-1.35003e-11
48	32224	19.81	-1.27898e-11
48	32374	19.91	-1.1724e-11
48	32528	20.01	-1.10134e-11
48	32678	20.11	-9.9476e-12
48	32828	20.21	-9.23706e-12
48	32978	20.31	-8.17124e-12
48	33128	20.41	-7.4607e-12
48	33278	20.51	-6.39488e-12
48	33428	20.61	-5.68434e-12
48	33578	20.71	-4.61853e-12
48	33728	20.81	-3.90799e-12
48	33878	20.91	-2.84217e-12
48	34032	21.01	-2.13163e-12
48	34182	21.11	-1.06581e-12
48	34332	21.21	-3.55271e-13
48	34482	21.31	7.10543e-13
48	34632	21.41	1.42109e-12
48	34782	21.51	2.13163e-12
48	34932	21.61	2.84217e-12
48	35082	21.71	3.19744e-12
48	35232	21.81	3.90799e-12
48	35382	21.91	4.26326e-12
48	35536	22.01	4.61853e-12
48	35686	22.11	5.32907e-12
48	35836	22.21	5.68434e-12
48	35986	22.31	5.68434e-12
48	36136	22.41	6.03961e-12
48	36286	22.51	6.39488e-12
48	36436	22.61	6.75016e-12
48	36586	22.71	6.75016e-12
48	36736	22.81	7.10543e-12
48	36886	22.91	7.10543e-12
48	37040	23.01	7.4607e-12
48	37190	23.11	7.4607e-12
48	37340	23.21	7.81597e-12
48	37490	23.31	7.81597e-12
48	37640	23.41	7.81597e-12
48	37790	23.51	7.81597e-12
48	37940	23.61	8.17124e-12
48	38090	23.71	8.17124e-12
48	38240	23.81	8.17124e-12
48	38390	23.91	8.17124e-12
48	38544	24.01	8.17124e-12
48	38694	24.11	8.52651e-12
48	38844	24.21	8.52651e-12
48	38994	24.31	8.52651e-12
48	39144	24.41	8.52651e-12
48	39294	24.51	8.52651e-12
48	39444	24.61	8.52651e-12
48	39595	24.71	8.52651e-12
48	39745	24.81	8.52651e-12
48	39895	24.91	8.52651e-12
48	40049	25.01	8.52651e-12
48	40199	25.11	8.88178e-12
48	40349	25.21	8.88178e-12
48	40499	25.31	8.88178e-12
48	40649	25.41	8.88178e-12
48	40799	25.51	8.88178e-12
48	40949	25.61	8.88178e-12
48	41099	25.71	8.88178e-12
48	41249	25.81	8.88178e-12
48	41399	25.91	8.88178e-12
48	41553	26.01	8.88178e-12
48	41703	26.11	8.88178e-12
48	41853	26.21	8.88178e-12
48	42003	26.31	8.88178e-12
48	42153	26.41	8.88178e-12
48	42303	26.51	8.88178e-12
48	42453	26.61	8.88178e-12
48	42603	26.71	8.88178e-12
48	42753	26.81	8.88178e-12
48	42903	26.91	8.88178e-12
48	43057	27.01	8.88178e-12
48	43207	27.11	8.88178e-12
48	43357	27.21	8.88178e-12
48	43507	27.31	8.88178e-12
48	43657	27.41	8.88178e-12
48	43807	27.51	8.88178e-12
48	43957	27.61	8.88178e-12
48	44107	27.71	8.88178e-12
48	44257	27.81	8.88178e-12
47	26	0.21	-0.000358191
47	176	0.31	-0.000681704
47	326	0.41	-0.00093487
47	476	0.51	-0.00112579
47	626	0.61	-0.00126221
47	776	0.71	-0.00135149
47	926	0.81	-0.00140049
47	1076	0.91	-0.00141557
47	1230	1.01	-0.00140255
47	1381	1.11	-0.00136671
47	1532	1.21	-0.0013128
47	1683	1.31	-0.00124502
47	2046	1.41	-0.0011671
47	2196	1.51	-0.00108223
47	2346	1.61	-0.000993208
47	2496	1.71	-0.000902362
47	2646	1.81	-0.000811651
47	2796	1.91	-0.000722679
47	2950	2.01	-0.000636729
47	3100	2.11	-0.0005548
47	3250	2.21	-0.000477639
47	3400	2.31	-0.000405773
47	3763	2.41	-0.00033954
47	3914	2.51	-0.000279116
47	4064	2.61	-0.000224541
47	4214	2.71	-0.000175743
47	4364	2.81	-0.00013256
47	4514	2.91	-9.47571e-05
47	4668	3.01	-6.2046e-05
47	4818	3.11	-3.40986e-05
47	4968	3.21	-1.05605e-05
47	5118	3.31	8.93844e-06
47	5269	3.41	2.4774e-05
47	5676	3.51	3.73203e-05
47	5826	3.61	4.69433e-05
47	5976	3.71	5.39956e-05
47	6126	3.81	5.88124e-05
47	6276	3.91	6.1709e-05
47	6430	4.01	6.29785e-05
47	6580	4.11	6.28903e-05
47	6730	4.21	6.169e-05
47	6880	4.31	5.95988e-05
47	7030	4.41	5.68144e-05
47	7393	4.51	5.35112e-05
47	7544	4.61	4.98416e-05
47	7694	4.71	4.59373e-05
47	7844	4.81	4.19105e-05
47	7994	4.91	3.78555e-05
47	8148	5.01	3.38499e-05
47	8298	5.11	2.99569e-05
47	8448	5.21	2.62259e-05
47	8598	5.31	2.26948e-05
47	8748	5.41	1.93911e-05
47	8899	5.51	1.6333e-05
47	9262	5.61	1.35314e-05
47	9412	5.71	1.09904e-05
47	9562	5.81	8.70882e-06
47	9712	5.91	6.6809e-06
47	9866	6.01	4.89747e-06
47	10016	6.11	3.3466e-06
47	10166	6.21	2.01432e-06
47	10316	6.31	8.85256e-07
47	10466	6.41	-5.68459e-08
47	10616	6.51	-8.28678e-07
47	11023	6.61	-1.44699e-06
47	11174	6.71	-1.92826e-06
47	11324	6.81	-2.28849e-06
47	11474	6.91	-2.54296e-06
47	11628	7.01	-2.7061e-06
47	11778	7.11	-2.79139e-06
47	11928	7.21	-2.8113e-06
47	12078	7.31	-2.77721e-06
47	12228	7.41	-2.69943e-06
47	12378	7.51	-2.58721e-06
47	12529	7.61	-2.44874e-06
47	12892	7.71	-2.29123e-06
47	13042	7.81	-2.12092e-06
47	13192	7.91	-1.94317e-06
47	13346	8.01	-1.7625e-06
47	13496	8.11	-1.58267e-06
47	13646	8.21	-1.40677e-06
47	13796	8.31	-1.23723e-06
47	13946	8.41	-1.07596e-06
47	14096	8.51	-9.24364e-07
47	14246	8.61	-7.83424e-07
47	14609	8.71	-6.53753e-07
47	14760	8.81	-5.35652e-07
47	14910	8.91	-4.2916e-07
47	15064	9.01	-3.34103e-07
47	15214	9.11	-2.5013e-07
47	15364	9.21	-1.76757e-07
47	15514	9.31	-1.13395e-07
47	15664	9.41	-5.93825e-08
47	15814	9.51	-1.40084e-08
47	15964	9.61	2.34657e-08
47	16115	9.71	5.3787e-08
47	16522	9.81	7.76954e-08
47	16672	9.91	9.59155e-08
47	16826	10.01	1.09142e-07
47	16976	10.11	1.18035e-07
47	17126	10.21	1.23212e-07
47	17276	10.31	1.2525e-07
47	17426	10.41	1.24675e-07
47	17576	10.51	1.21968e-07
47	17726	10.61	1.17559e-07
47	17876	10.71	1.11834e-07
47	18239	10.81	1.05132e-07
47	18390	10.91	9.77476e-08
47	18544	11.01	8.99373e-08
47	18694	11.11	8.19171e-08
47	18844	11.21	7.38677e-08
47	18994	11.31	6.59401e-08
47	19144	11.41	5.82538e-08
47	19294	11.51	5.09036e-08
47	19444	11.61	4.39606e-08
47	19594	11.71	3.74765e-08
47	19745	11.81	3.14852e-08
47	20108	11.91	2.60055e-08
47	20262	12.01	2.10438e-08
47	20412	12.11	1.65958e-08
47	20562	12.21	1.26498e-08
47	20712	12.31	9.18554e-09
47	20862	12.41	6.17888e-09
47	21012	12.51	3.60174e-09
47	21162	12.61	1.42322e-09
47	21312	12.71	-3.90088e-10
47	21462	12.81	-1.8705e-09
47	21845	12.91	-3.05107e-09
47	22000	13.01	-3.96518e-09
47	22150	13.11	-4.64375e-09
47	22300	13.21	-5.11768e-09
47	22450	13.31	-5.41434e-09
47	22600	13.41	-5.56071e-09
47	22750	13.51	-5.58096e-09
47	22900	13.61	-5.49747e-09
47	23050	13.71	-5.33085e-09
47	23200	13.81	-5.09743e-09
47	23350	13.91	-4.81464e-09
47	23504	14.01	-4.49667e-09
47	23654	14.11	-4.15525e-09
47	23804	14.21	-3.80034e-09
47	23954	14.31	-3.44151e-09
47	24104	14.41	-3.08518e-09
47	24254	14.51	-2.73772e-09
47	24404	14.61	-2.40306e-09
47	24554	14.71	-2.08544e-09
47	24704	14.81	-1.78773e-09
47	24854	14.91	-1.51132e-09
47	25008	15.01	-1.25766e-09
47	25158	15.11	-1.02673e-09
47	25308	15.21	-8.18901e-10
47	25458	15.31	-6.33804e-10
47	25608	15.41	-4.70735e-10
47	25758	15.51	-3.28271e-10
47	25908	15.61	-2.05702e-10
47	26058	15.71	-1.00897e-10
47	26208	15.81	-1.35003e-11
47	26358	15.91	5.82645e-11
47	26512	16.01	1.16174e-10
47	26662	16.11	1.61648e-10
47	26812	16.21	1.95755e-10
47	26962	16.31	2.20624e-10
47	27112	16.41	2.36966e-10
47	27262	16.51	2.45848e-10
47	27412	16.61	2.4869e-10
47	27562	16.71	2.46914e-10
47	27712	16.81	2.40874e-10
47	27862	16.91	2.31282e-10
47	28016	17.01	2.19913e-10
47	28166	17.11	2.05702e-10
47	28316	17.21	1.91491e-10
47	28466	17.31	1.7657e-10
47	28616	17.41	1.59872e-10
47	28766	17.51	1.44595e-10
47	28916	17.61	1.30385e-10
47	29066	17.71	1.16174e-10
47	29216	17.81	1.01963e-10
47	29366	17.91	8.7752e-11
47	29520	18.01	7.35412e-11
47	29670	18.11	6.21725e-11
47	29820	18.21	5.15143e-11
47	29970	18.31	4.08562e-11
47	30120	18.41	3.16192e-11
47	30270	18.51	2.45137e-11
47	30420	18.61	1.74083e-11
47	30570	18.71	1.03029e-11
47	30720	18.81	6.03961e-12
47	30870	18.91	2.4869e-12
47	31024	19.01	-1.06581e-12
47	31174	19.11	-4.61853e-12
47	31324	19.21	-8.17124e-12
47	31474	19.31	-8.88178e-12
47	31624	19.41	-8.88178e-12
47	31774	19.51	-8.88178e-12
47	31924	19.61	-8.88178e-12
47	32074	19.71	-8.88178e-12
47	32224	19.81	-8.88178e-12
47	32374	19.91	-8.88178e-12
47	32528	20.01	-8.88178e-12
47	32678	20.11	-8.88178e-12
47	32828	20.21	-8.88178e-12
47	32978	20.31	-8.88178e-12
47	33128	20.41	-8.88178e-12
47	33278	20.51	-8.88178e-12
47	33428	20.61	-8.88178e-12
47	33578	20.71	-8.88178e-12
47	33728	20.81	-8.88178e-12
47	33878	20.91	-8.88178e-12
47	34032	21.01	-8.88178e-12
47	34182	21.11	-8.88178e-12
47	34332	21.21	-8.88178e-12
47	34482	21.31	-8.17124e-12
47	34632	21.41	-7.4607e-12
47	34782	21.51	-6.75016e-12
47	34932	21.61	-6.03961e-12
47	35082	21.71	-5.68434e-12
47	35232	21.81	-4.9738e-12
47	35382	21.91	-4.61853e-12
47	35536	22.01	-4.26326e-12
47	35686	22.11	-3.55271e-12
47	35836	22.21	-3.19744e-12
47	35986	22.31	-3.19744e-12
47	36136	22.41	-2.84217e-12
47	36286	22.51	-2.4869e-12
47	36436	22.61	-2.13163e-12
47	36586	22.71	-2.13163e-12
47	36736	22.81	-1.77636e-12
47	36886	22.91	-1.77636e-12
47	37040	23.01	-1.42109e-12
47	37190	23.11	-1.42109e-12
47	37340	23.21	-1.06581e-12
47	37490	23.31	-1.06581e-12
47	37640	23.41	-1.06581e-12
47	37790	23.51	-1.06581e-12
47	37940	23.61	-7.10543e-13
47	38090	23.71	-7.10543e-13
47	38240	23.81	-7.10543e-13
47	38390	23.91	-7.10543e-13
47	38544	24.01	-7.10543e-13
47	38694	24.11	-3.55271e-13
47	38844	24.21	-3.55271e-13
47	38994	24.31	-3.55271e-13
47	39144	24.41	-3.55271e-13
47	39294	24.51	-3.55271e-13
47	39444	24.61	-3.55271e-13
47	39595	24.71	-3.55271e-13
47	39745	24.81	-3.55271e-13
47	39895	24.91	-3.55271e-13
47	40049	25.01	-3.55271e-13
47	40199	25.11	0
47	40349	25.21	0
47	40499	25.31	0
47	40649	25.41	0
47	40799	25.51	0
47	40949	25.61	0
47	41099	25.71	0
47	41249	25.81	0
47	41399	25.91	0
47	41553	26.01	0
47	41703	26.11	0
47	41853	26.21	0
47	42003	26.31	0
47	42153	26.41	0
47	42303	26.51	0
47	42453	26.61	0
47	42603	26.71	0
47	42753	26.81	0
47	42903	26.91	0
47	43057	27.01	0
47	43207	27.11	0
47	43357	27.21	0
47	43507	27.31	0
47	43657	27.41	0
47	43807	27.51	0
47	43957	27.61	0
47	44107	27.71	0
47	44257	27.81	0
51	26	0.21	1.6
51	176	0.31	1.6
51	326	0.41	1.6
51	476	0.51	1.6
51	626	0.61	1.6
51	776	0.71	1.6
51	926	0.81	1.6
51	1076	0.91	1.6
51	1230	1.01	1.6
51	1381	1.11	1.6
51	1532	1.21	1.6
51	1683	1.31	1.6
51	2046	1.41	1.6
51	2196	1.51	1.6
51	2346	1.61	1.6
51	2496	1.71	1.6
51	2646	1.81	1.6
51	2796	1.91	1.6
51	2950	2.01	1.6
51	3100	2.11	1.6
51	3250	2.21	1.6
51	3400	2.31	1.6
51	3763	2.41	1.6
51	3914	2.51	1.6
51	4064	2.61	1.6
51	4214	2.71	1.6
51	4364	2.81	1.6
51	4514	2.91	1.6
51	4668	3.01	1.6
51	4818	3.11	1.6
51	4968	3.21	1.6
51	5118	3.31	1.6
51	5269	3.41	1.6
51	5676	3.51	1.6
51	5826	3.61	1.6
51	5976	3.71	1.6
51	6126	3.81	1.6
51	6276	3.91	1.6
51	6430	4.01	1.6
51	6580	4.11	1.6
51	6730	4.21	1.6
51	6880	4.31	1.6
51	7030	4.41	1.6
51	7393	4.51	1.6
51	7544	4.61	1.6
51	7694	4.71	1.6
51	7844	4.81	1.6
51	7994	4.91	1.6
51	8148	5.01	1.6
51	8298	5.11	1.6
51	8448	5.21	1.6
51	8598	5.31	1.6
51	8748	5.41	1.6
51	8899	5.51	1.6
51	9262	5.61	1.6
51	9412	5.71	1.6
51	9562	5.81	1.6
51	9712	5.91	1.6
51	9866	6.01	1.6
51	10016	6.11	1.6
51	10166	6.21	1.6
51	10316	6.31	1.6
51	10466	6.41	1.6
51	10616	6.51	1.6
51	11023	6.61	1.6
51	11174	6.71	1.6
51	11324	6.81	1.6
51	11474	6.91	1.6
51	11628	7.01	1.6
51	11778	7.11	1.6
51	11928	7.21	1.6
51	12078	7.31	1.6
51	12228	7.41	1.6
51	12378	7.51	1.6
51	12529	7.61	1.6
51	12892	7.71	1.6
51	13042	7.81	1.6
51	13192	7.91	1.6
51	13346	8.01	1.6
51	13496	8.11	1.6
51	13646	8.21	1.6
51	13796	8.31	1.6
51	13946	8.41	1.6
51	14096	8.51	1.6
51	14246	8.61	1.6
51	14609	8.71	1.6
51	14760	8.81	1.6
51	14910	8.91	1.6
51	15064	9.01	1.6
51	15214	9.11	1.6
51	15364	9.21	1.6
51	15514	9.31	1.6
51	15664	9.41	1.6
51	15814	9.51	1.6
51	15964	9.61	1.6
51	16115	9.71	1.6
51	16522	9.81	1.6
51	16672	9.91	1.6
51	16826	10.01	1.6
51	16976	10.11	1.6
51	17126	10.21	1.6
51	17276	10.31	1.6
51	17426	10.41	1.6
51	17576	10.51	1.6
51	17726	10.61	1.6
51	17876	10.71	1.6
51	18239	10.81	1.6
51	18390	10.91	1.6
51	18544	11.01	1.6
51	18694	11.11	1.6
51	18844	11.21	1.6
51	18994	11.31	1.6
51	19144	11.41	1.6
51	19294	11.51	1.6
51	19444	11.61	1.6
51	19594	11.71	1.6
51	19745	11.81	1.6
51	20108	11.91	1.6
51	20262	12.01	1.6
51	20412	12.11	1.6
51	20562	12.21	1.6
51	20712	12.31	1.6
51	20862	12.41	1.6
51	21012	12.51	1.6
51	21162	12.61	1.6
51	21312	12.71	1.6
51	21462	12.81	1.6
51	21845	12.91	1.6
51	22000	13.01	1.6
51	22150	13.11	1.6
51	22300	13.21	1.6
51	22450	13.31	1.6
51	22600	13.41	1.6
51	22750	13.51	1.6
51	22900	13.61	1.6
51	23050	13.71	1.6
51	23200	13.81	1.6
51	23350	13.91	1.6
51	23504	14.01	1.6
51	23654	14.11	1.6
51	23804	14.21	1.6
51	23954	14.31	1.6
51	24104	14.41	1.6
51	24254	14.51	1.6
51	24404	14.61	1.6
51	24554	14.71	1.6
51	24704	14.81	1.6
51	24854	14.91	1.6
51	25008	15.01	1.6
51	25158	15.11	1.6
51	25308	15.21	1.6
51	25458	15.31	1.6
51	25608	15.41	1.6
51	25758	15.51	1.6
51	25908	15.61	1.6
51	26058	15.71	1.6
51	26208	15.81	1.6
51	26358	15.91	1.6
51	26512	16.01	1.6
51	26662	16.11	1.6
51	26812	16.21	1.6
51	26962	16.31	1.6
51	27112	16.41	1.6
51	27262	16.51	1.6
51	27412	16.61	1.6
51	27562	16.71	1.6
51	27712	16.81	1.6
51	27862	16.91	1.6
51	28016	17.01	1.6
51	28166	17.11	1.6
51	28316	17.21	1.6
51	28466	17.31	1.6
51	28616	17.41	1.6
51	28766	17.51	1.6
51	28916	17.61	1.6
51	29066	17.71	1.6
51	29216	17.81	1.6
51	29366	17.91	1.6
51	29520	18.01	1.6
51	29670	18.11	1.6
51	29820	18.21	1.6
51	29970	18.31	1.6
51	30120	18.41	1.6
51	30270	18.51	1.6
51	30420	18.61	1.6
51	30570	18.71	1.6
51	30720	18.81	1.6
51	30870	18.91	1.6
51	31024	19.01	1.6
51	31174	19.11	1.6
51	31324	19.21	1.6
51	31474	19.31	1.6
51	31624	19.41	1.6
51	31774	19.51	1.6
51	31924	19.61	1.6
51	32074	19.71	1.6
51	32224	19.81	1.6
51	32374	19.91	1.6
51	32528	20.01	1.6
51	32678	20.11	1.6
51	32828	20.21	1.6
51	32978	20.31	1.6
51	33128	20.41	1.6
51	33278	20.51	1.6
51	33428	20.61	1.6
51	33578	20.71	1.6
51	33728	20.81	1.6
51	33878	20.91	1.6
51	34032	21.01	1.6
51	34182	21.11	1.6
51	34332	21.21	1.6
51	34482	21.31	1.6
51	34632	21.41	1.6
51	34782	21.51	1.6
51	34932	21.61	1.6
51	35082	21.71	1.6
51	35232	21.81	1.6
51	35382	21.91	1.6
51	35536	22.01	1.6
51	35686	22.11	1.6
51	35836	22.21	1.6
51	35986	22.31	1.6
51	36136	22.41	1.6
51	36286	22.51	1.6
51	36436	22.61	1.6
51	36586	22.71	1.6
51	36736	22.81	1.6
51	36886	22.91	1.6
51	37040	23.01	1.6
51	37190	23.11	1.6
51	37340	23.21	1.6
51	37490	23.31	1.6
51	37640	23.41	1.6
51	37790	23.51	1.6
51	37940	23.61	1.6
51	38090	23.71	1.6
51	38240	23.81	1.6
51	38390	23.91	1.6
51	38544	24.01	1.6
51	38694	24.11	1.6
51	38844	24.21	1.6
51	38994	24.31	1.6
51	39144	24.41	1.6
51	39294	24.51	1.6
51	39444	24.61	1.6
51	39595	24.71	1.6
51	39745	24.81	1.6
51	39895	24.91	1.6
51	40049	25.01	1.6
51	40199	25.11	1.6
51	40349	25.21	1.6
51	40499	25.31	1.6
51	40649	25.41	1.6
51	40799	25.51	1.6
51	40949	25.61	1.6
51	41099	25.71	1.6
51	41249	25.81	1.6
51	41399	25.91	1.6
51	41553	26.01	1.6
51	41703	26.11	1.6
51	41853	26.21	1.6
51	42003	26.31	1.6
51	42153	26.41	1.6
51	42303	26.51	1.6
51	42453	26.61	1.6
51	42603	26.71	1.6
51	42753	26.81	1.6
51	42903	26.91	1.6
51	43057	27.01	1.6
51	43207	27.11	1.6
51	43357	27.21	1.6
51	43507	27.31	1.6
51	43657	27.41	1.6
51	43807	27.51	1.6
51	43957	27.61	1.6
51	44107	27.71	1.6
51	44257	27.81	1.6
50	26	0.21	492.4
50	176	0.31	490.622
50	326	0.41	488.844
50	476	0.51	487.066
50	626	0.61	485.288
50	776	0.71	483.51
50	926	0.81	481.732
50	1076	0.91	479.954
50	1230	1.01	478.176
50	1381	1.11	476.398
50	1532	1.21	474.62
50	1683	1.31	472.842
50	2046	1.41	471.065
50	2196	1.51	469.287
50	2346	1.61	467.509
50	2496	1.71	465.731
50	2646	1.81	463.953
50	2796	1.91	462.175
50	2950	2.01	460.398
50	3100	2.11	458.62
50	3250	2.21	456.842
50	3400	2.31	455.064
50	3763	2.41	453.286
50	3914	2.51	451.509
50	4064	2.61	449.731
50	4214	2.71	447.953
50	4364	2.81	446.175
50	4514	2.91	444.398
50	4668	3.01	442.62
50	4818	3.11	440.842
50	4968	3.21	439.064
50	5118	3.31	437.287
50	5269	3.41	435.509
50	5676	3.51	433.731
50	5826	3.61	431.953
50	5976	3.71	430.175
50	6126	3.81	428.398
50	6276	3.91	426.62
50	6430	4.01	424.842
50	6580	4.11	423.064
50	6730	4.21	421.287
50	6880	4.31	419.509
50	7030	4.41	417.731
50	7393	4.51	415.953
50	7544	4.61	414.175
50	7694	4.71	412.398
50	7844	4.81	410.62
50	7994	4.91	408.842
50	8148	5.01	407.064
50	8298	5.11	405.287
50	8448	5.21	403.509
50	8598	5.31	401.731
50	8748	5.41	399.953
50	8899	5.51	398.175
50	9262	5.61	396.398
50	9412	5.71	394.62
50	9562	5.81	392.842
50	9712	5.91	391.064
50	9866	6.01	389.287
50	10016	6.11	387.509
50	10166	6.21	385.731
50	10316	6.31	383.953
50	10466	6.41	382.175
50	10616	6.51	380.398
50	11023	6.61	378.62
50	11174	6.71	376.842
50	11324	6.81	375.064
50	11474	6.91	373.287
50	11628	7.01	371.509
50	11778	7.11	369.731
50	11928	7.21	367.953
50	12078	7.31	366.175
50	12228	7.41	364.398
50	12378	7.51	362.62
50	12529	7.61	360.842
50	12892	7.71	359.064
50	13042	7.81	357.287
50	13192	7.91	355.509
50	13346	8.01	353.731
50	13496	8.11	351.953
50	13646	8.21	350.175
50	13796	8.31	348.398
50	13946	8.41	346.62
50	14096	8.51	344.842
50	14246	8.61	343.064
50	14609	8.71	341.287
50	14760	8.81	339.509
50	14910	8.91	337.731
50	15064	9.01	335.953
50	15214	9.11	334.175
50	15364	9.21	332.398
50	15514	9.31	330.62
50	15664	9.41	328.842
50	15814	9.51	327.064
50	15964	9.61	325.286
50	16115	9.71	323.509
50	16522	9.81	321.731
50	16672	9.91	319.953
50	16826	10.01	318.175
50	16976	10.11	316.398
50	17126	10.21	314.62
50	17276	10.31	312.842
50	17426	10.41	311.064
50	17576	10.51	309.286
50	17726	10.61	307.509
50	17876	10.71	305.731
50	18239	10.81	303.953
50	18390	10.91	302.175
50	18544	11.01	300.398
50	18694	11.11	298.62
50	18844	11.21	296.842
50	18994	11.31	295.064
50	19144	11.41	293.286
50	19294	11.51	291.509
50	19444	11.61	289.731
50	19594	11.71	287.953
50	19745	11.81	286.175
50	20108	11.91	284.398
50	20262	12.01	282.62
50	20412	12.11	280.842
50	20562	12.21	279.064
50	20712	12.31	277.286
50	20862	12.41	275.509
50	21012	12.51	273.731
50	21162	12.61	271.953
50	21312	12.71	270.175
50	21462	12.81	268.398
50	21845	12.91	266.62
50	22000	13.01	264.842
50	22150	13.11	263.064
50	22300	13.21	261.286
50	22450	13.31	259.509
50	22600	13.41	257.731
50	22750	13.51	255.953
50	22900	13.61	254.175
50	23050	13.71	252.398
50	23200	13.81	250.62
50	23350	13.91	248.842
50	23504	14.01	247.064
50	23654	14.11	245.286
50	23804	14.21	243.509
50	23954	14.31	241.731
50	24104	14.41	239.953
50	24254	14.51	238.175
50	24404	14.61	236.397
50	24554	14.71	234.62
50	24704	14.81	232.842
50	24854	14.91	231.064
50	25008	15.01	229.286
50	25158	15.11	227.509
50	25308	15.21	225.731
50	25458	15.31	223.953
50	25608	15.41	222.175
50	25758	15.51	220.397
50	25908	15.61	218.62
50	26058	15.71	216.842
50	26208	15.81	215.064
50	26358	15.91	213.286
50	26512	16.01	211.509
50	26662	16.11	209.731
50	26812	16.21	207.953
50	26962	16.31	206.175
50	27112	16.41	204.397
50	27262	16.51	202.62
50	27412	16.61	200.842
50	27562	16.71	199.064
50	27712	16.81	197.286
50	27862	16.91	195.509
50	28016	17.01	193.731
50	28166	17.11	191.953
50	28316	17.21	190.175
50	28466	17.31	188.397
50	28616	17.41	186.62
50	28766	17.51	184.842
50	28916	17.61	183.064
50	29066	17.71	181.286
50	29216	17.81	179.509
50	29366	17.91	177.731
50	29520	18.01	175.953
50	29670	18.11	174.175
50	29820	18.21	172.397
50	29970	18.31	170.62
50	30120	18.41	168.842
50	30270	18.51	167.064
50	30420	18.61	165.286
50	30570	18.71	163.509
50	30720	18.81	161.731
50	30870	18.91	159.953
50	31024	19.01	158.175
50	31174	19.11	156.397
50	31324	19.21	154.62
50	31474	19.31	152.842
50	31624	19.41	151.064
50	31774	19.51	149.286
50	31924	19.61	147.508
50	32074	19.71	145.731
50	32224	19.81	143.953
50	32374	19.91	142.175
50	32528	20.01	140.397
50	32678	20.11	138.62
50	32828	20.21	136.842
50	32978	20.31	135.064
50	33128	20.41	133.286
50	33278	20.51	131.508
50	33428	20.61	129.731
50	33578	20.71	127.953
50	33728	20.81	126.175
50	33878	20.91	124.397
50	34032	21.01	122.62
50	34182	21.11	120.842
50	34332	21.21	119.064
50	34482	21.31	117.286
50	34632	21.41	115.508
50	34782	21.51	113.731
50	34932	21.61	111.953
50	35082	21.71	110.175
50	35232	21.81	108.397
50	35382	21.91	106.62
50	35536	22.01	104.842
50	35686	22.11	103.064
50	35836	22.21	101.286
50	35986	22.31	99.5084
50	36136	22.41	97.7306
50	36286	22.51	95.9529
50	36436	22.61	94.1751
50	36586	22.71	92.3973
50	36736	22.81	90.6195
50	36886	22.91	88.8417
50	37040	23.01	87.064
50	37190	23.11	85.2862
50	37340	23.21	83.5084
50	37490	23.31	81.7306
50	37640	23.41	79.9528
50	37790	23.51	78.1751
50	37940	23.61	76.3973
50	38090	23.71	74.6195
50	38240	23.81	72.8417
50	38390	23.91	71.0639
50	38544	24.01	69.2862
50	38694	24.11	67.5084
50	38844	24.21	65.7306
50	38994	24.31	63.9528
50	39144	24.41	62.175
50	39294	24.51	60.3973
50	39444	24.61	58.6195
50	39595	24.71	56.8417
50	39745	24.81	55.0639
50	39895	24.91	53.2861
50	40049	25.01	51.5084
50	40199	25.11	49.7306
50	40349	25.21	47.9528
50	40499	25.31	46.175
50	40649	25.41	44.3972
50	40799	25.51	42.6195
50	40949	25.61	40.8417
50	41099	25.71	39.0639
50	41249	25.81	37.2861
50	41399	25.91	35.5083
50	41553	26.01	33.7306
50	41703	26.11	31.9528
50	41853	26.21	30.175
50	42003	26.31	28.3972
50	42153	26.41	26.6194
50	42303	26.51	24.8417
50	42453	26.61	23.0639
50	42603	26.71	21.2861
50	42753	26.81	19.5083
50	42903	26.91	17.7305
50	43057	27.01	15.9528
50	43207	27.11	14.175
50	43357	27.21	12.3972
50	43507	27.31	10.6194
50	43657	27.41	8.84165
50	43807	27.51	7.06387
50	43957	27.61	5.28609
50	44107	27.71	3.50831
50	44257	27.81	1.73053
49	26	0.21	17.78
49	176	0.31	17.7799
49	326	0.41	17.7798
49	476	0.51	17.7797
49	626	0.61	17.7796
49	776	0.71	17.7795
49	926	0.81	17.7794
49	1076	0.91	17.7792
49	1230	1.01	17.7791
49	1381	1.11	17.7789
49	1532	1.21	17.7788
49	1683	1.31	17.7787
49	2046	1.41	17.7785
49	2196	1.51	17.7784
49	2346	1.61	17.7783
49	2496	1.71	17.7782
49	2646	1.81	17.7782
49	2796	1.91	17.7781
49	2950	2.01	17.778
49	3100	2.11	17.7779
49	3250	2.21	17.7779
49	3400	2.31	17.7779
49	3763	2.41	17.7778
49	3914	2.51	17.7778
49	4064	2.61	17.7778
49	4214	2.71	17.7777
49	4364	2.81	17.7777
49	4514	2.91	17.7777
49	4668	3.01	17.7777
49	4818	3.11	17.7777
49	4968	3.21	17.7777
49	5118	3.31	17.7777
49	5269	3.41	17.7777
49	5676	3.51	17.7777
49	5826	3.61	17.7777
49	5976	3.71	17.7777
49	6126	3.81	17.7777
49	6276	3.91	17.7777
49	6430	4.01	17.7777
49	6580	4.11	17.7777
49	6730	4.21	17.7777
49	6880	4.31	17.7778
49	7030	4.41	17.7778
49	7393	4.51	17.7778
49	7544	4.61	17.7778
49	7694	4.71	17.7778
49	7844	4.81	17.7778
49	7994	4.91	17.7778
49	8148	5.01	17.7778
49	8298	5.11	17.7778
49	8448	5.21	17.7778
49	8598	5.31	17.7778
49	8748	5.41	17.7778
49	8899	5.51	17.7778
49	9262	5.61	17.7778
49	9412	5.71	17.7778
49	9562	5.81	17.7778
49	9712	5.91	17.7778
49	9866	6.01	17.7778
49	10016	6.11	17.7778
49	10166	6.21	17.7778
49	10316	6.31	17.7778
49	10466	6.41	17.7778
49	10616	6.51	17.7778
49	11023	6.61	17.7778
49	11174	6.71	17.7778
49	11324	6.81	17.7778
49	11474	6.91	17.7778
49	11628	7.01	17.7778
49	11778	7.11	17.7778
49	11928	7.21	17.7778
49	12078	7.31	17.7778
49	12228	7.41	17.7778
49	12378	7.51	17.7778
49	12529	7.61	17.7778
49	12892	7.71	17.7778
49	13042	7.81	17.7778
49	13192	7.91	17.7778
49	13346	8.01	17.7778
49	13496	8.11	17.7778
49	13646	8.21	17.7778
49	13796	8.31	17.7778
49	13946	8.41	17.7778
49	14096	8.51	17.7778
49	14246	8.61	17.7778
49	14609	8.71	17.7778
49	14760	8.81	17.7778
49	14910	8.91	17.7778
49	15064	9.01	17.7778
49	15214	9.11	17.7778
49	15364	9.21	17.7778
49	15514	9.31	17.7778
49	15664	9.41	17.7778
49	15814	9.51	17.7778
49	15964	9.61	17.7778
49	16115	9.71	17.7778
49	16522	9.81	17.7778
49	16672	9.91	17.7778
49	16826	10.01	17.7778
49	16976	10.11	17.7778
49	17126	10.21	17.7778
49	17276	10.31	17.7778
49	17426	10.41	17.7778
49	17576	10.51	17.7778
49	17726	10.61	17.7778
49	17876	10.71	17.7778
49	18239	10.81	17.7778
49	18390	10.91	17.7778
49	18544	11.01	17.7778
49	18694	11.11	17.7778
49	18844	11.21	17.7778
49	18994	11.31	17.7778
49	19144	11.41	17.7778
49	19294	11.51	17.7778
49	19444	11.61	17.7778
49	19594	11.71	17.7778
49	19745	11.81	17.7778
49	20108	11.91	17.7778
49	20262	12.01	17.7778
49	20412	12.11	17.7778
49	20562	12.21	17.7778
49	20712	12.31	17.7778
49	20862	12.41	17.7778
49	21012	12.51	17.7778
49	21162	12.61	17.7778
49	21312	12.71	17.7778
49	21462	12.81	17.7778
49	21845	12.91	17.7778
49	22000	13.01	17.7778
49	22150	13.11	17.7778
49	22300	13.21	17.7778
49	22450	13.31	17.7778
49	22600	13.41	17.7778
49	22750	13.51	17.7778
49	22900	13.61	17.7778
49	23050	13.71	17.7778
49	23200	13.81	17.7778
49	23350	13.91	17.7778
49	23504	14.01	17.7778
49	23654	14.11	17.7778
49	23804	14.21	17.7778
49	23954	14.31	17.7778
49	24104	14.41	17.7778
49	24254	14.51	17.7778
49	24404	14.61	17.7778
49	24554	14.71	17.7778
49	24704	14.81	17.7778
49	24854	14.91	17.7778
49	25008	15.01	17.7778
49	25158	15.11	17.7778
49	25308	15.21	17.7778
49	25458	15.31	17.7778
49	25608	15.41	17.7778
49	25758	15.51	17.7778
49	25908	15.61	17.7778
49	26058	15.71	17.7778
49	26208	15.81	17.7778
49	26358	15.91	17.7778
49	26512	16.01	17.7778
49	26662	16.11	17.7778
49	26812	16.21	17.7778
49	26962	16.31	17.7778
49	27112	16.41	17.7778
49	27262	16.51	17.7778
49	27412	16.61	17.7778
49	27562	16.71	17.7778
49	27712	16.81	17.7778
49	27862	16.91	17.7778
49	28016	17.01	17.7778
49	28166	17.11	17.7778
49	28316	17.21	17.7778
49	28466	17.31	17.7778
49	28616	17.41	17.7778
49	28766	17.51	17.7778
49	28916	17.61	17.7778
49	29066	17.71	17.7778
49	29216	17.81	17.7778
49	29366	17.91	17.7778
49	29520	18.01	17.7778
49	29670	18.11	17.7778
49	29820	18.21	17.7778
49	29970	18.31	17.7778
49	30120	18.41	17.7778
49	30270	18.51	17.7778
49	30420	18.61	17.7778
49	30570	18.71	17.7778
49	30720	18.81	17.7778
49	30870	18.91	17.7778
49	31024	19.01	17.7778
49	31174	19.11	17.7778
49	31324	19.21	17.7778
49	31474	19.31	17.7778
49	31624	19.41	17.7778
49	31774	19.51	17.7778
49	31924	19.61	17.7778
49	32074	19.71	17.7778
49	32224	19.81	17.7778
49	32374	19.91	17.7778
49	32528	20.01	17.7778
49	32678	20.11	17.7778
49	32828	20.21	17.7778
49	32978	20.31	17.7778
49	33128	20.41	17.7778
49	33278	20.51	17.7778
49	33428	20.61	17.7778
49	33578	20.71	17.7778
49	33728	20.81	17.7778
49	33878	20.91	17.7778
49	34032	21.01	17.7778
49	34182	21.11	17.7778
49	34332	21.21	17.7778
49	34482	21.31	17.7778
49	34632	21.41	17.7778
49	34782	21.51	17.7778
49	34932	21.61	17.7778
49	35082	21.71	17.7778
49	35232	21.81	17.7778
49	35382	21.91	17.7778
49	35536	22.01	17.7778
49	35686	22.11	17.7778
49	35836	22.21	17.7778
49	35986	22.31	17.7778
49	36136	22.41	17.7778
49	36286	22.51	17.7778
49	36436	22.61	17.7778
49	36586	22.71	17.7778
49	36736	22.81	17.7778
49	36886	22.91	17.7778
49	37040	23.01	17.7778
49	37190	23.11	17.7778
49	37340	23.21	17.7778
49	37490	23.31	17.7778
49	37640	23.41	17.7778
49	37790	23.51	17.7778
49	37940	23.61	17.7778
49	38090	23.71	17.7778
49	38240	23.81	17.7778
49	38390	23.91	17.7778
49	38544	24.01	17.7778
49	38694	24.11	17.7778
49	38844	24.21	17.7778
49	38994	24.31	17.7778
49	39144	24.41	17.7778
49	39294	24.51	17.7778
49	39444	24.61	17.7778
49	39595	24.71	17.7778
49	39745	24.81	17.7778
49	39895	24.91	17.7778
49	40049	25.01	17.7778
49	40199	25.11	17.7778
49	40349	25.21	17.7778
49	40499	25.31	17.7778
49	40649	25.41	17.7778
49	40799	25.51	17.7778
49	40949	25.61	17.7778
49	41099	25.71	17.7778
49	41249	25.81	17.7778
49	41399	25.91	17.7778
49	41553	26.01	17.7778
49	41703	26.11	17.7778
49	41853	26.21	17.7778
49	42003	26.31	17.7778
49	42153	26.41	17.7778
49	42303	26.51	17.7778
49	42453	26.61	17.7778
49	42603	26.71	17.7778
49	42753	26.81	17.7778
49	42903	26.91	17.7778
49	43057	27.01	17.7778
49	43207	27.11	17.7778
49	43357	27.21	17.7778
49	43507	27.31	17.7778
49	43657	27.41	17.7778
49	43807	27.51	17.7778
49	43957	27.61	17.7778
49	44107	27.71	17.7778
49	44257	27.81	17.7778
45	26	0.21	0
45	176	0.31	0
45	326	0.41	0
45	476	0.51	0
45	626	0.61	0
45	776	0.71	0
45	926	0.81	0
45	1076	0.91	0
45	1230	1.01	0
45	1381	1.11	0
45	1532	1.21	0
45	1683	1.31	0
45	2046	1.41	0
45	2196	1.51	0
45	2346	1.61	0
45	2496	1.71	0
45	2646	1.81	0
45	2796	1.91	0
45	2950	2.01	0
45	3100	2.11	0
45	3250	2.21	0
45	3400	2.31	0
45	3763	2.41	0
45	3914	2.51	0
45	4064	2.61	0
45	4214	2.71	0
45	4364	2.81	0
45	4514	2.91	0
45	4668	3.01	0
45	4818	3.11	0
45	4968	3.21	0
45	5118	3.31	0
45	5269	3.41	0
45	5676	3.51	0
45	5826	3.61	0
45	5976	3.71	0
45	6126	3.81	0
45	6276	3.91	0
45	6430	4.01	0
45	6580	4.11	0
45	6730	4.21	0
45	6880	4.31	0
45	7030	4.41	0
45	7393	4.51	0
45	7544	4.61	0
45	7694	4.71	0
45	7844	4.81	0
45	7994	4.91	0
45	8148	5.01	0
45	8298	5.11	0
45	8448	5.21	0
45	8598	5.31	0
45	8748	5.41	0
45	8899	5.51	0
45	9262	5.61	0
45	9412	5.71	0
45	9562	5.81	0
45	9712	5.91	0
45	9866	6.01	0
45	10016	6.11	0
45	10166	6.21	0
45	10316	6.31	0
45	10466	6.41	0
45	10616	6.51	0
45	11023	6.61	0
45	11174	6.71	0
45	11324	6.81	0
45	11474	6.91	0
45	11628	7.01	0
45	11778	7.11	0
45	11928	7.21	0
45	12078	7.31	0
45	12228	7.41	0
45	12378	7.51	0
45	12529	7.61	0
45	12892	7.71	0
45	13042	7.81	0
45	13192	7.91	0
45	13346	8.01	0
45	13496	8.11	0
45	13646	8.21	0
45	13796	8.31	0
45	13946	8.41	0
45	14096	8.51	0
45	14246	8.61	0
45	14609	8.71	0
45	14760	8.81	0
45	14910	8.91	0
45	15064	9.01	0
45	15214	9.11	0
45	15364	9.21	0
45	15514	9.31	0
45	15664	9.41	0
45	15814	9.51	0
45	15964	9.61	0
45	16115	9.71	0
45	16522	9.81	0
45	16672	9.91	0
45	16826	10.01	0
45	16976	10.11	0
45	17126	10.21	0
45	17276	10.31	0
45	17426	10.41	0
45	17576	10.51	0
45	17726	10.61	0
45	17876	10.71	0
45	18239	10.81	0
45	18390	10.91	0
45	18544	11.01	0
45	18694	11.11	0
45	18844	11.21	0
45	18994	11.31	0
45	19144	11.41	0
45	19294	11.51	0
45	19444	11.61	0
45	19594	11.71	0
45	19745	11.81	0
45	20108	11.91	0
45	20262	12.01	0
45	20412	12.11	0
45	20562	12.21	0
45	20712	12.31	0
45	20862	12.41	0
45	21012	12.51	0
45	21162	12.61	0
45	21312	12.71	0
45	21462	12.81	0
45	21845	12.91	0
45	22000	13.01	0
45	22150	13.11	0
45	22300	13.21	0
45	22450	13.31	0
45	22600	13.41	0
45	22750	13.51	0
45	22900	13.61	0
45	23050	13.71	0
45	23200	13.81	0
45	23350	13.91	0
45	23504	14.01	0
45	23654	14.11	0
45	23804	14.21	0
45	23954	14.31	0
45	24104	14.41	0
45	24254	14.51	0
45	24404	14.61	0
45	24554	14.71	0
45	24704	14.81	0
45	24854	14.91	0
45	25008	15.01	0
45	25158	15.11	0
45	25308	15.21	0
45	25458	15.31	0
45	25608	15.41	0
45	25758	15.51	0
45	25908	15.61	0
45	26058	15.71	0
45	26208	15.81	0
45	26358	15.91	0
45	26512	16.01	0
45	26662	16.11	0
45	26812	16.21	0
45	26962	16.31	0
45	27112	16.41	0
45	27262	16.51	0
45	27412	16.61	0
45	27562	16.71	0
45	27712	16.81	0
45	27862	16.91	0
45	28016	17.01	0
45	28166	17.11	0
45	28316	17.21	0
45	28466	17.31	0
45	28616	17.41	0
45	28766	17.51	0
45	28916	17.61	0
45	29066	17.71	0
45	29216	17.81	0
45	29366	17.91	0
45	29520	18.01	0
45	29670	18.11	0
45	29820	18.21	0
45	29970	18.31	0
45	30120	18.41	0
45	30270	18.51	0
45	30420	18.61	0
45	30570	18.71	0
45	30720	18.81	0
45	30870	18.91	0
45	31024	19.01	0
45	31174	19.11	0
45	31324	19.21	0
45	31474	19.31	0
45	31624	19.41	0
45	31774	19.51	0
45	31924	19.61	0
45	32074	19.71	0
45	32224	19.81	0
45	32374	19.91	0
45	32528	20.01	0
45	32678	20.11	0
45	32828	20.21	0
45	32978	20.31	0
45	33128	20.41	0
45	33278	20.51	0
45	33428	20.61	0
45	33578	20.71	0
45	33728	20.81	0
45	33878	20.91	0
45	34032	21.01	0
45	34182	21.11	0
45	34332	21.21	0
45	34482	21.31	0
45	34632	21.41	0
45	34782	21.51	0
45	34932	21.61	0
45	35082	21.71	0
45	35232	21.81	0
45	35382	21.91	0
45	35536	22.01	0
45	35686	22.11	0
45	35836	22.21	0
45	35986	22.31	0
45	36136	22.41	0
45	36286	22.51	0
45	36436	22.61	0
45	36586	22.71	0
45	36736	22.81	0
45	36886	22.91	0
45	37040	23.01	0
45	37190	23.11	0
45	37340	23.21	0
45	37490	23.31	0
45	37640	23.41	0
45	37790	23.51	0
45	37940	23.61	0
45	38090	23.71	0
45	38240	23.81	0
45	38390	23.91	0
45	38544	24.01	0
45	38694	24.11	0
45	38844	24.21	0
45	38994	24.31	0
45	39144	24.41	0
45	39294	24.51	0
45	39444	24.61	0
45	39595	24.71	0
45	39745	24.81	0
45	39895	24.91	0
45	40049	25.01	0
45	40199	25.11	0
45	40349	25.21	0
45	40499	25.31	0
45	40649	25.41	0
45	40799	25.51	0
45	40949	25.61	0
45	41099	25.71	0
45	41249	25.81	0
45	41399	25.91	0
45	41553	26.01	0
45	41703	26.11	0
45	41853	26.21	0
45	42003	26.31	0
45	42153	26.41	0
45	42303	26.51	0
45	42453	26.61	0
45	42603	26.71	0
45	42753	26.81	0
45	42903	26.91	0
45	43057	27.01	0
45	43207	27.11	0
45	43357	27.21	0
45	43507	27.31	0
45	43657	27.41	0
45	43807	27.51	0
45	43957	27.61	0
45	44107	27.71	0
45	44257	27.81	0
44	26	0.21	-1
44	176	0.31	-1
44	326	0.41	-1
44	476	0.51	-1
44	626	0.61	-1
44	776	0.71	-1
44	926	0.81	-1
44	1076	0.91	-1
44	1230	1.01	-1
44	1381	1.11	-1
44	1532	1.21	-1
44	1683	1.31	-1
44	2046	1.41	-1
44	2196	1.51	-1
44	2346	1.61	-1
44	2496	1.71	-1
44	2646	1.81	-1
44	2796	1.91	-1
44	2950	2.01	-1
44	3100	2.11	-1
44	3250	2.21	-1
44	3400	2.31	-1
44	3763	2.41	-1
44	3914	2.51	-1
44	4064	2.61	-1
44	4214	2.71	-1
44	4364	2.81	-1
44	4514	2.91	-1
44	4668	3.01	-1
44	4818	3.11	-1
44	4968	3.21	-1
44	5118	3.31	-1
44	5269	3.41	-1
44	5676	3.51	-1
44	5826	3.61	-1
44	5976	3.71	-1
44	6126	3.81	-1
44	6276	3.91	-1
44	6430	4.01	-1
44	6580	4.11	-1
44	6730	4.21	-1
44	6880	4.31	-1
44	7030	4.41	-1
44	7393	4.51	-1
44	7544	4.61	-1
44	7694	4.71	-1
44	7844	4.81	-1
44	7994	4.91	-1
44	8148	5.01	-1
44	8298	5.11	-1
44	8448	5.21	-1
44	8598	5.31	-1
44	8748	5.41	-1
44	8899	5.51	-1
44	9262	5.61	-1
44	9412	5.71	-1
44	9562	5.81	-1
44	9712	5.91	-1
44	9866	6.01	-1
44	10016	6.11	-1
44	10166	6.21	-1
44	10316	6.31	-1
44	10466	6.41	-1
44	10616	6.51	-1
44	11023	6.61	-1
44	11174	6.71	-1
44	11324	6.81	-1
44	11474	6.91	-1
44	11628	7.01	-1
44	11778	7.11	-1
44	11928	7.21	-1
44	12078	7.31	-1
44	12228	7.41	-1
44	12378	7.51	-1
44	12529	7.61	-1
44	12892	7.71	-1
44	13042	7.81	-1
44	13192	7.91	-1
44	13346	8.01	-1
44	13496	8.11	-1
44	13646	8.21	-1
44	13796	8.31	-1
44	13946	8.41	-1
44	14096	8.51	-1
44	14246	8.61	-1
44	14609	8.71	-1
44	14760	8.81	-1
44	14910	8.91	-1
44	15064	9.01	-1
44	15214	9.11	-1
44	15364	9.21	-1
44	15514	9.31	-1
44	15664	9.41	-1
44	15814	9.51	-1
44	15964	9.61	-1
44	16115	9.71	-1
44	16522	9.81	-1
44	16672	9.91	-1
44	16826	10.01	-1
44	16976	10.11	-1
44	17126	10.21	-1
44	17276	10.31	-1
44	17426	10.41	-1
44	17576	10.51	-1
44	17726	10.61	-1
44	17876	10.71	-1
44	18239	10.81	-1
44	18390	10.91	-1
44	18544	11.01	-1
44	18694	11.11	-1
44	18844	11.21	-1
44	18994	11.31	-1
44	19144	11.41	-1
44	19294	11.51	-1
44	19444	11.61	-1
44	19594	11.71	-1
44	19745	11.81	-1
44	20108	11.91	-1
44	20262	12.01	-1
44	20412	12.11	-1
44	20562	12.21	-1
44	20712	12.31	-1
44	20862	12.41	-1
44	21012	12.51	-1
44	21162	12.61	-1
44	21312	12.71	-1
44	21462	12.81	-1
44	21845	12.91	-1
44	22000	13.01	-1
44	22150	13.11	-1
44	22300	13.21	-1
44	22450	13.31	-1
44	22600	13.41	-1
44	22750	13.51	-1
44	22900	13.61	-1
44	23050	13.71	-1
44	23200	13.81	-1
44	23350	13.91	-1
44	23504	14.01	-1
44	23654	14.11	-1
44	23804	14.21	-1
44	23954	14.31	-1
44	24104	14.41	-1
44	24254	14.51	-1
44	24404	14.61	-1
44	24554	14.71	-1
44	24704	14.81	-1
44	24854	14.91	-1
44	25008	15.01	-1
44	25158	15.11	-1
44	25308	15.21	-1
44	25458	15.31	-1
44	25608	15.41	-1
44	25758	15.51	-1
44	25908	15.61	-1
44	26058	15.71	-1
44	26208	15.81	-1
44	26358	15.91	-1
44	26512	16.01	-1
44	26662	16.11	-1
44	26812	16.21	-1
44	26962	16.31	-1
44	27112	16.41	-1
44	27262	16.51	-1
44	27412	16.61	-1
44	27562	16.71	-1
44	27712	16.81	-1
44	27862	16.91	-1
44	28016	17.01	-1
44	28166	17.11	-1
44	28316	17.21	-1
44	28466	17.31	-1
44	28616	17.41	-1
44	28766	17.51	-1
44	28916	17.61	-1
44	29066	17.71	-1
44	29216	17.81	-1
44	29366	17.91	-1
44	29520	18.01	-1
44	29670	18.11	-1
44	29820	18.21	-1
44	29970	18.31	-1
44	30120	18.41	-1
44	30270	18.51	-1
44	30420	18.61	-1
44	30570	18.71	-1
44	30720	18.81	-1
44	30870	18.91	-1
44	31024	19.01	-1
44	31174	19.11	-1
44	31324	19.21	-1
44	31474	19.31	-1
44	31624	19.41	-1
44	31774	19.51	-1
44	31924	19.61	-1
44	32074	19.71	-1
44	32224	19.81	-1
44	32374	19.91	-1
44	32528	20.01	-1
44	32678	20.11	-1
44	32828	20.21	-1
44	32978	20.31	-1
44	33128	20.41	-1
44	33278	20.51	-1
44	33428	20.61	-1
44	33578	20.71	-1
44	33728	20.81	-1
44	33878	20.91	-1
44	34032	21.01	-1
44	34182	21.11	-1
44	34332	21.21	-1
44	34482	21.31	-1
44	34632	21.41	-1
44	34782	21.51	-1
44	34932	21.61	-1
44	35082	21.71	-1
44	35232	21.81	-1
44	35382	21.91	-1
44	35536	22.01	-1
44	35686	22.11	-1
44	35836	22.21	-1
44	35986	22.31	-1
44	36136	22.41	-1
44	36286	22.51	-1
44	36436	22.61	-1
44	36586	22.71	-1
44	36736	22.81	-1
44	36886	22.91	-1
44	37040	23.01	-1
44	37190	23.11	-1
44	37340	23.21	-1
44	37490	23.31	-1
44	37640	23.41	-1
44	37790	23.51	-1
44	37940	23.61	-1
44	38090	23.71	-1
44	38240	23.81	-1
44	38390	23.91	-1
44	38544	24.01	-1
44	38694	24.11	-1
44	38844	24.21	-1
44	38994	24.31	-1
44	39144	24.41	-1
44	39294	24.51	-1
44	39444	24.61	-1
44	39595	24.71	-1
44	39745	24.81	-1
44	39895	24.91	-1
44	40049	25.01	-1
44	40199	25.11	-1
44	40349	25.21	-1
44	40499	25.31	-1
44	40649	25.41	-1
44	40799	25.51	-1
44	40949	25.61	-1
44	41099	25.71	-1
44	41249	25.81	-1
44	41399	25.91	-1
44	41553	26.01	-1
44	41703	26.11	-1
44	41853	26.21	-1
44	42003	26.31	-1
44	42153	26.41	-1
44	42303	26.51	-1
44	42453	26.61	-1
44	42603	26.71	-1
44	42753	26.81	-1
44	42903	26.91	-1
44	43057	27.01	-1
44	43207	27.11	-1
44	43357	27.21	-1
44	43507	27.31	-1
44	43657	27.41	-1
44	43807	27.51	-1
44	43957	27.61	-1
44	44107	27.71	-1
44	44257	27.81	-1
46	26	0.21	3
46	176	0.31	3
46	326	0.41	3
46	476	0.51	3
46	626	0.61	3
46	776	0.71	3
46	926	0.81	3
46	1076	0.91	3
46	1230	1.01	3
46	1381	1.11	3
46	1532	1.21	3
46	1683	1.31	3
46	2046	1.41	3
46	2196	1.51	3
46	2346	1.61	3
46	2496	1.71	3
46	2646	1.81	3
46	2796	1.91	3
46	2950	2.01	3
46	3100	2.11	3
46	3250	2.21	3
46	3400	2.31	3
46	3763	2.41	3
46	3914	2.51	3
46	4064	2.61	3
46	4214	2.71	3
46	4364	2.81	3
46	4514	2.91	3
46	4668	3.01	3
46	4818	3.11	3
46	4968	3.21	3
46	5118	3.31	3
46	5269	3.41	3
46	5676	3.51	3
46	5826	3.61	3
46	5976	3.71	3
46	6126	3.81	3
46	6276	3.91	3
46	6430	4.01	3
46	6580	4.11	3
46	6730	4.21	3
46	6880	4.31	3
46	7030	4.41	3
46	7393	4.51	3
46	7544	4.61	3
46	7694	4.71	3
46	7844	4.81	3
46	7994	4.91	3
46	8148	5.01	3
46	8298	5.11	3
46	8448	5.21	3
46	8598	5.31	3
46	8748	5.41	3
46	8899	5.51	3
46	9262	5.61	3
46	9412	5.71	3
46	9562	5.81	3
46	9712	5.91	3
46	9866	6.01	3
46	10016	6.11	3
46	10166	6.21	3
46	10316	6.31	3
46	10466	6.41	3
46	10616	6.51	3
46	11023	6.61	3
46	11174	6.71	3
46	11324	6.81	3
46	11474	6.91	3
46	11628	7.01	3
46	11778	7.11	3
46	11928	7.21	3
46	12078	7.31	3
46	12228	7.41	3
46	12378	7.51	3
46	12529	7.61	3
46	12892	7.71	3
46	13042	7.81	3
46	13192	7.91	3
46	13346	8.01	3
46	13496	8.11	3
46	13646	8.21	3
46	13796	8.31	3
46	13946	8.41	3
46	14096	8.51	3
46	14246	8.61	3
46	14609	8.71	3
46	14760	8.81	3
46	14910	8.91	3
46	15064	9.01	3
46	15214	9.11	3
46	15364	9.21	3
46	15514	9.31	3
46	15664	9.41	3
46	15814	9.51	3
46	15964	9.61	3
46	16115	9.71	3
46	16522	9.81	3
46	16672	9.91	3
46	16826	10.01	3
46	16976	10.11	3
46	17126	10.21	3
46	17276	10.31	3
46	17426	10.41	3
46	17576	10.51	3
46	17726	10.61	3
46	17876	10.71	3
46	18239	10.81	3
46	18390	10.91	3
46	18544	11.01	3
46	18694	11.11	3
46	18844	11.21	3
46	18994	11.31	3
46	19144	11.41	3
46	19294	11.51	3
46	19444	11.61	3
46	19594	11.71	3
46	19745	11.81	3
46	20108	11.91	3
46	20262	12.01	3
46	20412	12.11	3
46	20562	12.21	3
46	20712	12.31	3
46	20862	12.41	3
46	21012	12.51	3
46	21162	12.61	3
46	21312	12.71	3
46	21462	12.81	3
46	21845	12.91	3
46	22000	13.01	3
46	22150	13.11	3
46	22300	13.21	3
46	22450	13.31	3
46	22600	13.41	3
46	22750	13.51	3
46	22900	13.61	3
46	23050	13.71	3
46	23200	13.81	3
46	23350	13.91	3
46	23504	14.01	3
46	23654	14.11	3
46	23804	14.21	3
46	23954	14.31	3
46	24104	14.41	3
46	24254	14.51	3
46	24404	14.61	3
46	24554	14.71	3
46	24704	14.81	3
46	24854	14.91	3
46	25008	15.01	3
46	25158	15.11	3
46	25308	15.21	3
46	25458	15.31	3
46	25608	15.41	3
46	25758	15.51	3
46	25908	15.61	3
46	26058	15.71	3
46	26208	15.81	3
46	26358	15.91	3
46	26512	16.01	3
46	26662	16.11	3
46	26812	16.21	3
46	26962	16.31	3
46	27112	16.41	3
46	27262	16.51	3
46	27412	16.61	3
46	27562	16.71	3
46	27712	16.81	3
46	27862	16.91	3
46	28016	17.01	3
46	28166	17.11	3
46	28316	17.21	3
46	28466	17.31	3
46	28616	17.41	3
46	28766	17.51	3
46	28916	17.61	3
46	29066	17.71	3
46	29216	17.81	3
46	29366	17.91	3
46	29520	18.01	3
46	29670	18.11	3
46	29820	18.21	3
46	29970	18.31	3
46	30120	18.41	3
46	30270	18.51	3
46	30420	18.61	3
46	30570	18.71	3
46	30720	18.81	3
46	30870	18.91	3
46	31024	19.01	3
46	31174	19.11	3
46	31324	19.21	3
46	31474	19.31	3
46	31624	19.41	3
46	31774	19.51	3
46	31924	19.61	3
46	32074	19.71	3
46	32224	19.81	3
46	32374	19.91	3
46	32528	20.01	3
46	32678	20.11	3
46	32828	20.21	3
46	32978	20.31	3
46	33128	20.41	3
46	33278	20.51	3
46	33428	20.61	3
46	33578	20.71	3
46	33728	20.81	3
46	33878	20.91	3
46	34032	21.01	3
46	34182	21.11	3
46	34332	21.21	3
46	34482	21.31	3
46	34632	21.41	3
46	34782	21.51	3
46	34932	21.61	3
46	35082	21.71	3
46	35232	21.81	3
46	35382	21.91	3
46	35536	22.01	3
46	35686	22.11	3
46	35836	22.21	3
46	35986	22.31	3
46	36136	22.41	3
46	36286	22.51	3
46	36436	22.61	3
46	36586	22.71	3
46	36736	22.81	3
46	36886	22.91	3
46	37040	23.01	3
46	37190	23.11	3
46	37340	23.21	3
46	37490	23.31	3
46	37640	23.41	3
46	37790	23.51	3
46	37940	23.61	3
46	38090	23.71	3
46	38240	23.81	3
46	38390	23.91	3
46	38544	24.01	3
46	38694	24.11	3
46	38844	24.21	3
46	38994	24.31	3
46	39144	24.41	3
46	39294	24.51	3
46	39444	24.61	3
46	39595	24.71	3
46	39745	24.81	3
46	39895	24.91	3
46	40049	25.01	3
46	40199	25.11	3
46	40349	25.21	3
46	40499	25.31	3
46	40649	25.41	3
46	40799	25.51	3
46	40949	25.61	3
46	41099	25.71	3
46	41249	25.81	3
46	41399	25.91	3
46	41553	26.01	3
46	41703	26.11	3
46	41853	26.21	3
46	42003	26.31	3
46	42153	26.41	3
46	42303	26.51	3
46	42453	26.61	3
46	42603	26.71	3
46	42753	26.81	3
46	42903	26.91	3
46	43057	27.01	3
46	43207	27.11	3
46	43357	27.21	3
46	43507	27.31	3
46	43657	27.41	3
46	43807	27.51	3
46	43957	27.61	3
46	44107	27.71	3
46	44257	27.81	3
67	1191	1	0
67	2911	2	0
67	4629	3	0
67	6391	4	0
67	8109	5	0
67	9827	6	0
67	11589	7	0
67	13307	8	0
67	15025	9	0
67	16787	10	0
67	18505	11	0
67	20223	12	0
67	21961	13	0
67	23465	14	0
67	24969	15	0
67	26473	16	0
67	27977	17	0
67	29481	18	0
67	30985	19	0
67	32489	20	0
67	33993	21	0
67	35497	22	0
67	37001	23	0
67	38505	24	0
67	40010	25	0
67	41514	26	0
67	43018	27	0
66	1191	1	0.009679
66	2911	2	0.013005613376
66	4629	3	0.013005342954
66	6391	4	0.013053089686
66	8109	5	0.013004841632
66	9827	6	0.01300459541
66	11589	7	0.013147350978
66	13307	8	0.013004108618
66	15025	9	0.013003868326
66	16787	10	0.01314662994
66	18505	11	0.013003393334
66	20223	12	0.01300315886
66	21961	13	0.0130030795
66	23465	14	0.01249
66	24969	15	0.01249
66	26473	16	0.01249
66	27977	17	0.01249
66	29481	18	0.01249
66	30985	19	0.01249
66	32489	20	0.01249
66	33993	21	0.01249
66	35497	22	0.01249
66	37001	23	0.01249
66	38505	24	0.01249
66	40010	25	0.01249
66	41514	26	0.01249
66	43018	27	0.01249
65	1191	1	3
65	2911	2	3
65	4629	3	3
65	6391	4	3
65	8109	5	3
65	9827	6	3
65	11589	7	3
65	13307	8	3
65	15025	9	3
65	16787	10	3
65	18505	11	3
65	20223	12	3
65	21961	13	3
65	23465	14	3
65	24969	15	3
65	26473	16	3
65	27977	17	3
65	29481	18	3
65	30985	19	3
65	32489	20	3
65	33993	21	3
65	35497	22	3
65	37001	23	3
65	38505	24	3
65	40010	25	3
65	41514	26	3
65	43018	27	3
19	15	0.13	2.486580787684
19	16	0.14	2.4864030580769
19	17	0.15	2.4862288614572
19	18	0.16	2.4860581627179
19	19	0.17	2.4858909267533
19	20	0.18	2.4857271184669
19	21	0.19	2.4855667027805
19	22	0.2	2.485409644634
19	27	0.21	2.4852559089981
19	62	0.22	2.4851054608784
19	97	0.23	2.4849582653203
19	98	0.24	2.484814287418
19	99	0.25	2.484673492318
19	134	0.26	2.4845358452262
19	135	0.27	2.4844013114113
19	136	0.28	2.4842698562138
19	137	0.29	2.4841414450511
19	138	0.3	2.4840160434168
19	177	0.31	2.483893616895
19	212	0.32	2.4837741311604
19	247	0.33	2.4836575519825
19	248	0.34	2.4835438452303
19	249	0.35	2.4834329768821
19	284	0.36	2.4833249130246
19	285	0.37	2.4832196198582
19	286	0.38	2.4831170637032
19	287	0.39	2.4830172110053
19	288	0.4	2.4829200283349
19	327	0.41	2.4828254823956
19	362	0.42	2.4827335400265
19	397	0.43	2.4826441682062
19	398	0.44	2.4825573340562
19	399	0.45	2.4824730048456
19	434	0.46	2.4823911479925
19	435	0.47	2.4823117310701
19	436	0.48	2.4822347218088
19	437	0.49	2.4821600880987
19	438	0.5	2.4820877979943
19	477	0.51	2.482017819715
19	512	0.52	2.4819501216525
19	547	0.53	2.4818846723708
19	548	0.54	2.4818214406063
19	549	0.55	2.4817603952757
19	584	0.56	2.4817015054773
19	585	0.57	2.4816447404897
19	586	0.58	2.4815900697795
19	587	0.59	2.4815374630012
19	588	0.6	2.4814868899976
19	627	0.61	2.4814383208057
19	662	0.62	2.4813917256567
19	697	0.63	2.4813470749763
19	698	0.64	2.4813043393924
19	699	0.65	2.4812634897302
19	734	0.66	2.4812244970191
19	735	0.67	2.4811873324918
19	736	0.68	2.4811519675854
19	737	0.69	2.4811183739452
19	738	0.7	2.4810865234238
19	777	0.71	2.4810563880869
19	812	0.72	2.4810279402092
19	847	0.73	2.481001152277
19	848	0.74	2.4809759969934
19	849	0.75	2.4809524472749
19	884	0.76	2.4809304762563
19	885	0.77	2.4809100572859
19	886	0.78	2.4808911639321
19	887	0.79	2.4808737699848
19	888	0.8	2.4808578494491
19	927	0.81	2.480843376555
19	962	0.82	2.4808303257512
19	997	0.83	2.4808186717109
19	998	0.84	2.4808083893279
19	999	0.85	2.4807994537209
19	1034	0.86	2.4807918402305
19	1035	0.87	2.4807855244242
19	1036	0.88	2.480780482093
19	1037	0.89	2.4807766892514
19	1038	0.9	2.4807741221413
19	1077	0.91	2.480772757228
19	1112	0.92	2.4807725712057
19	1147	0.93	2.4807735409909
19	1148	0.94	2.4807756437289
19	1149	0.95	2.4807788567891
19	1184	0.96	2.4807831577682
19	1185	0.97	2.480788524489
19	1186	0.98	2.480794935
19	1187	0.99	2.4808023675743
19	1192	1	2.4808108007109
19	1231	1.01	2.4808202131352
19	1266	1.02	2.4808305837973
19	1301	1.03	2.4808418918734
19	1302	1.04	2.4808541167617
19	1303	1.05	2.4808672380868
19	1338	1.06	2.4808812356953
19	1339	1.07	2.4808960896602
19	1340	1.08	2.4809117802737
19	1341	1.09	2.4809282880519
19	1342	1.1	2.4809455937342
19	1382	1.11	2.4809636782783
19	1417	1.12	2.4809825228653
19	1452	1.13	2.481002108896
19	1453	1.14	2.4810224179891
19	1454	1.15	2.4810434319828
19	1489	1.16	2.481065132932
19	1490	1.17	2.4810875031113
19	1491	1.18	2.4811105250102
19	1492	1.19	2.4811341813323
19	1493	1.2	2.4811584549994
19	1533	1.21	2.4811833291442
19	1568	1.22	2.4812087871148
19	1603	1.23	2.4812348124688
19	1604	1.24	2.4812613889778
19	1605	1.25	2.4812885006216
19	1640	1.26	2.4813161315895
19	1641	1.27	2.4813442662792
19	1642	1.28	2.4813728892964
19	1643	1.29	2.4814019854506
19	1644	1.3	2.4814315397599
19	1684	1.31	2.4814615374431
19	1931	1.32	2.4814919639244
19	1966	1.33	2.4815228048291
19	1967	1.34	2.481554045982
19	1968	1.35	2.4815856734072
19	2004	1.36	2.4816176733289
19	2005	1.37	2.4816500321677
19	2006	1.38	2.4816827365408
19	2007	1.39	2.4817157732578
19	2008	1.4	2.4817491293251
19	2047	1.41	2.4817827919384
19	2082	1.42	2.4818167484842
19	2117	1.43	2.4818509865415
19	2118	1.44	2.4818854938773
19	2119	1.45	2.4819202584434
19	2154	1.46	2.4819552683783
19	2155	1.47	2.4819905120056
19	2156	1.48	2.4820259778322
19	2157	1.49	2.4820616545461
19	2158	1.5	2.4820975310156
19	2197	1.51	2.48213359629
19	2232	1.52	2.482169839593
19	2267	1.53	2.482206250328
19	2268	1.54	2.482242818073
19	2269	1.55	2.4822795325762
19	2304	1.56	2.4823163837625
19	2305	1.57	2.4823533617256
19	2306	1.58	2.4823904567281
19	2307	1.59	2.4824276592
19	2308	1.6	2.4824649597405
19	2347	1.61	2.4825023491118
19	2382	1.62	2.4825398182407
19	2417	1.63	2.4825773582169
19	2418	1.64	2.4826149602889
19	2419	1.65	2.4826526158654
19	2454	1.66	2.4826903165152
19	2455	1.67	2.4827280539614
19	2456	1.68	2.4827658200827
19	2457	1.69	2.4828036069107
19	2458	1.7	2.4828414066313
19	2497	1.71	2.4828792115786
19	2532	1.72	2.4829170142381
19	2567	1.73	2.4829548072423
19	2568	1.74	2.482992583369
19	2569	1.75	2.4830303355428
19	2604	1.76	2.483068056831
19	2605	1.77	2.4831057404416
19	2606	1.78	2.4831433797252
19	2607	1.79	2.4831809681705
19	2608	1.8	2.4832184994041
19	2647	1.81	2.4832559671893
19	2682	1.82	2.4832933654228
19	2717	1.83	2.483330688135
19	2718	1.84	2.4833679294899
19	2719	1.85	2.4834050837791
19	2754	1.86	2.4834421454264
19	2755	1.87	2.4834791089803
19	2756	1.88	2.4835159691154
19	2757	1.89	2.483552720634
19	2758	1.9	2.4835893584587
19	2797	1.91	2.4836258776354
19	2832	1.92	2.4836622733301
19	2867	1.93	2.4836985408277
19	2868	1.94	2.4837346755303
19	2869	1.95	2.4837706729559
19	2904	1.96	2.4838065287398
19	2905	1.97	2.4838422386286
19	2906	1.98	2.4838777984802
19	2907	1.99	2.4839132042641
19	2912	2	2.4839484520594
19	2951	2.01	2.4839835380537
19	2986	2.02	2.4840184585387
19	3021	2.03	2.4840532099141
19	3022	2.04	2.484087788681
19	3023	2.05	2.4841221914441
19	3058	2.06	2.4841564149093
19	3059	2.07	2.4841904558817
19	3060	2.08	2.4842243112661
19	3061	2.09	2.4842579780623
19	3062	2.1	2.4842914533665
19	3101	2.11	2.4843247343715
19	3136	2.12	2.4843578183604
19	3171	2.13	2.4843907027086
19	3172	2.14	2.484423384885
19	3173	2.15	2.4844558624444
19	3208	2.16	2.4844881330308
19	3209	2.17	2.4845201943758
19	3210	2.18	2.4845520442969
19	3211	2.19	2.4845836806933
19	3212	2.2	2.4846151015489
19	3251	2.21	2.484646304929
19	3286	2.22	2.4846772889805
19	3321	2.23	2.4847080519293
19	3322	2.24	2.4847385920778
19	3323	2.25	2.4847689078076
19	3358	2.26	2.4847989975742
19	3359	2.27	2.4848288599101
19	3360	2.28	2.4848584934177
19	3361	2.29	2.4848878967749
19	3362	2.3	2.4849170687278
19	3401	2.31	2.4849460080953
19	3436	2.32	2.4849747137641
19	3471	2.33	2.485003184688
19	3472	2.34	2.4850314198858
19	3473	2.35	2.4850594184458
19	3509	2.36	2.4850871795173
19	3722	2.37	2.4851147023132
19	3723	2.38	2.4851419861098
19	3724	2.39	2.4851690302431
19	3725	2.4	2.485195834111
19	3765	2.41	2.485222397169
19	3800	2.42	2.4852487189306
19	3835	2.43	2.4852747989652
19	3836	2.44	2.4853006369003
19	3837	2.45	2.4853262324162
19	3872	2.46	2.4853515852482
19	3873	2.47	2.4853766951832
19	3874	2.48	2.4854015620598
19	3875	2.49	2.4854261857699
19	3876	2.5	2.4854505662526
19	3915	2.51	2.4854747034972
19	3950	2.52	2.4854985975402
19	3985	2.53	2.4855222484655
19	3986	2.54	2.4855456564024
19	3987	2.55	2.4855688215261
19	4022	2.56	2.4855917440563
19	4023	2.57	2.4856144242549
19	4024	2.58	2.485636862427
19	4025	2.59	2.4856590589171
19	4026	2.6	2.4856810141141
19	4065	2.61	2.4857027284421
19	4100	2.62	2.4857242023679
19	4135	2.63	2.4857454363951
19	4136	2.64	2.4857664310638
19	4137	2.65	2.4857871869512
19	4172	2.66	2.4858077046694
19	4173	2.67	2.4858279848659
19	4174	2.68	2.4858480282202
19	4175	2.69	2.4858678354475
19	4176	2.7	2.4858874072946
19	4215	2.71	2.485906744538
19	4250	2.72	2.4859258479877
19	4285	2.73	2.4859447184814
19	4286	2.74	2.4859633568877
19	4287	2.75	2.4859817641011
19	4322	2.76	2.4859999410472
19	4323	2.77	2.4860178886775
19	4324	2.78	2.4860356079682
19	4325	2.79	2.486053099922
19	4326	2.8	2.4860703655675
19	4365	2.81	2.4860874059566
19	4400	2.82	2.486104222166
19	4435	2.83	2.4861208152924
19	4436	2.84	2.4861371864573
19	4437	2.85	2.4861533368039
19	4472	2.86	2.486169267494
19	4473	2.87	2.4861849797127
19	4474	2.88	2.4862004746607
19	4475	2.89	2.4862157535619
19	4476	2.9	2.4862308176559
19	4515	2.91	2.4862456682008
19	4550	2.92	2.4862603064736
19	4585	2.93	2.4862747337639
19	4586	2.94	2.4862889513813
19	4587	2.95	2.4863029606498
19	4622	2.96	2.4863167629074
19	4623	2.97	2.4863303595061
19	4624	2.98	2.4863437518125
19	4625	2.99	2.4863569412068
19	4630	3	2.4863699290823
19	4669	3.01	2.4863827168431
19	4704	3.02	2.4863953059061
19	4739	3.03	2.4864076976993
19	4740	3.04	2.4864198936603
19	4741	3.05	2.4864318952378
19	4776	3.06	2.4864437038901
19	4777	3.07	2.4864553210837
19	4778	3.08	2.4864667482961
19	4779	3.09	2.4864779870116
19	4780	3.1	2.4864890387222
19	4819	3.11	2.4864999049284
19	4854	3.12	2.486510587137
19	4889	3.13	2.4865210868602
19	4890	3.14	2.4865314056179
19	4891	3.15	2.4865415449368
19	4926	3.16	2.4865515063457
19	4927	3.17	2.4865612913799
19	4928	3.18	2.4865709015782
19	4929	3.19	2.486580338486
19	4930	3.2	2.4865896036509
19	4969	3.21	2.4865986986222
19	5004	3.22	2.4866076249546
19	5039	3.23	2.4866163842047
19	5040	3.24	2.4866249779311
19	5041	3.25	2.4866334076945
19	5076	3.26	2.4866416750575
19	5077	3.27	2.4866497815819
19	5078	3.28	2.4866577288329
19	5079	3.29	2.4866655183747
19	5080	3.3	2.4866731517736
19	5119	3.31	2.4866806305933
19	5154	3.32	2.486687956398
19	5189	3.33	2.4866951307525
19	5190	3.34	2.486702155219
19	5191	3.35	2.4867090313602
19	5226	3.36	2.4867157607348
19	5227	3.37	2.4867223449019
19	5228	3.38	2.4867287854182
19	5229	3.39	2.4867350838362
19	5230	3.4	2.4867412417091
19	5270	3.41	2.4867472605843
19	5561	3.42	2.4867531420067
19	5596	3.43	2.4867588875173
19	5597	3.44	2.4867644986559
19	5598	3.45	2.4867699769568
19	5634	3.46	2.4867753239502
19	5635	3.47	2.4867805411638
19	5636	3.48	2.486785630118
19	5637	3.49	2.4867905923294
19	5638	3.5	2.4867954293103
19	5677	3.51	2.4868001425692
19	5712	3.52	2.4868047336071
19	5747	3.53	2.4868092039196
19	5748	3.54	2.4868135549983
19	5749	3.55	2.4868177883276
19	5784	3.56	2.4868219053847
19	5785	3.57	2.4868259076442
19	5786	3.58	2.4868297965723
19	5787	3.59	2.4868335736278
19	5788	3.6	2.4868372402639
19	5827	3.61	2.4868407979269
19	5862	3.62	2.4868442480556
19	5897	3.63	2.486847592082
19	5898	3.64	2.4868508314307
19	5899	3.65	2.4868539675193
19	5934	3.66	2.4868570017581
19	5935	3.67	2.486859935549
19	5936	3.68	2.4868627702863
19	5937	3.69	2.486865507356
19	5938	3.7	2.4868681481369
19	5977	3.71	2.4868706939988
19	6012	3.72	2.4868731463032
19	6047	3.73	2.4868755064041
19	6048	3.74	2.4868777756471
19	6049	3.75	2.4868799553689
19	6084	3.76	2.4868820468976
19	6085	3.77	2.4868840515509
19	6086	3.78	2.486885970641
19	6087	3.79	2.4868878054683
19	6088	3.8	2.4868895573261
19	6127	3.81	2.4868912274958
19	6162	3.82	2.4868928172531
19	6197	3.83	2.4868943278636
19	6198	3.84	2.486895760581
19	6199	3.85	2.4868971166535
19	6234	3.86	2.4868983973172
19	6235	3.87	2.4868996037998
19	6236	3.88	2.4869007373185
19	6237	3.89	2.4869017990835
19	6238	3.9	2.4869027902914
19	6277	3.91	2.4869037121334
19	6312	3.92	2.4869045657872
19	6347	3.93	2.4869053524232
19	6348	3.94	2.4869060732018
19	6349	3.95	2.4869067292713
19	6384	3.96	2.4869073217729
19	6385	3.97	2.4869078518374
19	6386	3.98	2.4869083205841
19	6387	3.99	2.4869087291247
19	6392	4	2.4869090785576
19	6431	4.01	2.4869093699741
19	6466	4.02	2.486909604455
19	6501	4.03	2.4869097830711
19	6502	4.04	2.4869099068825
19	6503	4.05	2.4869099769393
19	6538	4.06	2.4869099942811
19	6539	4.07	2.4869099599387
19	6540	4.08	2.4869098749327
19	6541	4.09	2.4869097402733
19	6542	4.1	2.4869095569602
19	6581	4.11	2.4869093259832
19	6616	4.12	2.4869090483212
19	6651	4.13	2.4869087249448
19	6652	4.14	2.4869083568138
19	6653	4.15	2.4869079448781
19	6688	4.16	2.4869074900768
19	6689	4.17	2.4869069933406
19	6690	4.18	2.4869064555879
19	6691	4.19	2.4869058777301
19	6692	4.2	2.4869052606651
19	6731	4.21	2.4869046052833
19	6766	4.22	2.486903912465
19	6801	4.23	2.48690318308
19	6802	4.24	2.4869024179877
19	6803	4.25	2.4869016180386
19	6838	4.26	2.486900784073
19	6839	4.27	2.4868999169222
19	6840	4.28	2.4868990174055
19	6841	4.29	2.4868980863349
19	6842	4.3	2.4868971245108
19	6881	4.31	2.4868961327257
19	6916	4.32	2.4868951117606
19	6951	4.33	2.4868940623889
19	6952	4.34	2.4868929853722
19	6953	4.35	2.4868918814646
19	6988	4.36	2.4868907514085
19	6989	4.37	2.4868895959401
19	6990	4.38	2.4868884157825
19	6991	4.39	2.4868872116527
19	6992	4.4	2.4868859842558
19	7031	4.41	2.4868847342895
19	7066	4.42	2.4868834624411
19	7101	4.43	2.486882169389
19	7102	4.44	2.4868808558026
19	7103	4.45	2.4868795223411
19	7139	4.46	2.4868781696574
19	7352	4.47	2.4868767983928
19	7353	4.48	2.4868754091795
19	7354	4.49	2.4868740026438
19	7355	4.5	2.4868725794001
19	7395	4.51	2.4868711400553
19	7430	4.52	2.486869685206
19	7465	4.53	2.4868682154427
19	7466	4.54	2.4868667313471
19	7467	4.55	2.4868652334887
19	7502	4.56	2.4868637224329
19	7503	4.57	2.4868621987344
19	7504	4.58	2.4868606629405
19	7505	4.59	2.4868591155882
19	7506	4.6	2.4868575572083
19	7545	4.61	2.4868559883213
19	7580	4.62	2.4868544094433
19	7615	4.63	2.4868528210783
19	7616	4.64	2.4868512237228
19	7617	4.65	2.4868496178675
19	7652	4.66	2.4868480039941
19	7653	4.67	2.4868463825753
19	7654	4.68	2.4868447540777
19	7655	4.69	2.4868431189593
19	7656	4.7	2.4868414776702
19	7695	4.71	2.4868398306548
19	7730	4.72	2.4868381783469
19	7765	4.73	2.4868365211744
19	7766	4.74	2.4868348595577
19	7767	4.75	2.4868331939097
19	7802	4.76	2.4868315246359
19	7803	4.77	2.4868298521342
19	7804	4.78	2.4868281767966
19	7805	4.79	2.4868264990076
19	7806	4.8	2.4868248191442
19	7845	4.81	2.4868231375759
19	7880	4.82	2.4868214546647
19	7915	4.83	2.4868197707683
19	7916	4.84	2.4868180862366
19	7917	4.85	2.4868164014123
19	7952	4.86	2.4868147166303
19	7953	4.87	2.4868130322214
19	7954	4.88	2.486811348507
19	7955	4.89	2.4868096658043
19	7956	4.9	2.4868079844243
19	7995	4.91	2.4868063046707
19	8030	4.92	2.4868046268396
19	8065	4.93	2.4868029512241
19	8066	4.94	2.4868012781082
19	8067	4.95	2.4867996077701
19	8102	4.96	2.4867979404848
19	8103	4.97	2.4867962765186
19	8104	4.98	2.4867946161313
19	8105	4.99	2.4867929595802
19	8110	5	2.4867913071132
19	8149	5.01	2.4867896589756
19	8184	5.02	2.4867880154048
19	8219	5.03	2.4867863766338
19	8220	5.04	2.4867847428913
19	8221	5.05	2.4867831143968
19	8256	5.06	2.4867814913682
19	8257	5.07	2.4867798740162
19	8258	5.08	2.4867782625466
19	8259	5.09	2.4867766571596
19	8260	5.1	2.4867750580504
19	8299	5.11	2.4867734654102
19	8334	5.12	2.4867718794237
19	8369	5.13	2.4867703002731
19	8370	5.14	2.4867687281326
19	8371	5.15	2.4867671631737
19	8406	5.16	2.4867656055617
19	8407	5.17	2.486764055459
19	8408	5.18	2.4867625130204
19	8409	5.19	2.4867609783992
19	8410	5.2	2.4867594517442
19	8449	5.21	2.4867579331967
19	8484	5.22	2.4867564228964
19	8519	5.23	2.4867549209771
19	8520	5.24	2.4867534275695
19	8521	5.25	2.4867519427997
19	8556	5.26	2.4867504667894
19	8557	5.27	2.4867489996558
19	8558	5.28	2.4867475415129
19	8559	5.29	2.4867460924703
19	8560	5.3	2.4867446526332
19	8599	5.31	2.4867432221034
19	8634	5.32	2.4867418009802
19	8669	5.33	2.4867403893563
19	8670	5.34	2.4867389873234
19	8671	5.35	2.4867375949682
19	8706	5.36	2.4867362123733
19	8707	5.37	2.4867348396179
19	8708	5.38	2.48673347678
19	8709	5.39	2.4867321239313
19	8710	5.4	2.4867307811406
19	8749	5.41	2.4867294484753
19	8784	5.42	2.4867281259965
19	8819	5.43	2.4867268137654
19	8820	5.44	2.4867255118372
19	8821	5.45	2.486724220267
19	8856	5.46	2.4867229391025
19	8857	5.47	2.4867216683928
19	8858	5.48	2.4867204081808
19	8859	5.49	2.4867191585081
19	8860	5.5	2.4867179194132
19	8900	5.51	2.4867166909316
19	9147	5.52	2.4867154730971
19	9182	5.53	2.4867142659393
19	9183	5.54	2.4867130694843
19	9184	5.55	2.4867118837572
19	9220	5.56	2.4867107087811
19	9221	5.57	2.4867095445748
19	9222	5.58	2.4867083911556
19	9223	5.59	2.4867072485377
19	9224	5.6	2.4867061167337
19	9263	5.61	2.4867049957549
19	9298	5.62	2.4867038856077
19	9333	5.63	2.4867027862958
19	9334	5.64	2.4867016978241
19	9335	5.65	2.4867006201933
19	9370	5.66	2.4866995534023
19	9371	5.67	2.4866984974471
19	9372	5.68	2.4866974523219
19	9373	5.69	2.4866964180214
19	9374	5.7	2.4866953945336
19	9413	5.71	2.4866943818486
19	9448	5.72	2.486693379953
19	9483	5.73	2.4866923888322
19	9484	5.74	2.4866914084682
19	9485	5.75	2.4866904388419
19	9520	5.76	2.4866894799338
19	9521	5.77	2.4866885317215
19	9522	5.78	2.4866875941813
19	9523	5.79	2.4866866672875
19	9524	5.8	2.4866857510147
19	9563	5.81	2.4866848453329
19	9598	5.82	2.4866839502121
19	9633	5.83	2.4866830656207
19	9634	5.84	2.4866821915255
19	9635	5.85	2.486681327892
19	9670	5.86	2.4866804746853
19	9671	5.87	2.486679631868
19	9672	5.88	2.4866787994005
19	9673	5.89	2.4866779772438
19	9674	5.9	2.486677165357
19	9713	5.91	2.4866763636978
19	9748	5.92	2.4866755722238
19	9783	5.93	2.4866747908895
19	9784	5.94	2.4866740196497
19	9785	5.95	2.4866732584572
19	9820	5.96	2.4866725072651
19	9821	5.97	2.4866717660235
19	9822	5.98	2.4866710346836
19	9823	5.99	2.486670313194
19	9828	6	2.486669601503
19	9867	6.01	2.486668899559
19	9902	6.02	2.4866682073072
19	9937	6.03	2.4866675246946
19	9938	6.04	2.4866668516647
19	9939	6.05	2.4866661881614
19	9974	6.06	2.4866655341299
19	9975	6.07	2.4866648895109
19	9976	6.08	2.4866642542479
19	9977	6.09	2.48666362828
19	9978	6.1	2.4866630115495
19	10017	6.11	2.4866624039953
19	10052	6.12	2.4866618055564
19	10087	6.13	2.4866612161718
19	10088	6.14	2.486660635779
19	10089	6.15	2.486660064317
19	10124	6.16	2.4866595017216
19	10125	6.17	2.4866589479288
19	10126	6.18	2.4866584028758
19	10127	6.19	2.4866578664971
19	10128	6.2	2.4866573387284
19	10167	6.21	2.4866568195039
19	10202	6.22	2.4866563087579
19	10237	6.23	2.4866558064247
19	10238	6.24	2.4866553124385
19	10239	6.25	2.4866548267303
19	10274	6.26	2.4866543492343
19	10275	6.27	2.4866538798832
19	10276	6.28	2.4866534186095
19	10277	6.29	2.4866529653457
19	10278	6.3	2.4866525200231
19	10317	6.31	2.4866520825724
19	10352	6.32	2.4866516529262
19	10387	6.33	2.4866512310155
19	10388	6.34	2.4866508167712
19	10389	6.35	2.4866504101242
19	10424	6.36	2.4866500110054
19	10425	6.37	2.4866496193442
19	10426	6.38	2.4866492350728
19	10427	6.39	2.4866488581207
19	10428	6.4	2.4866484884185
19	10467	6.41	2.4866481258971
19	10502	6.42	2.4866477704872
19	10537	6.43	2.486647422118
19	10538	6.44	2.4866470807202
19	10539	6.45	2.486646746223
19	10574	6.46	2.4866464185586
19	10575	6.47	2.4866460976561
19	10576	6.48	2.486645783446
19	10577	6.49	2.4866454758575
19	10578	6.5	2.4866451748226
19	10617	6.51	2.4866448802719
19	10652	6.52	2.4866445921359
19	10687	6.53	2.4866443103451
19	10688	6.54	2.48664403483
19	10689	6.55	2.486643765521
19	10725	6.56	2.4866435023501
19	10982	6.57	2.4866432452493
19	10983	6.58	2.4866429941488
19	10984	6.59	2.4866427489806
19	10985	6.6	2.4866425096766
19	11025	6.61	2.4866422761686
19	11060	6.62	2.4866420483885
19	11095	6.63	2.4866418262679
19	11096	6.64	2.4866416097403
19	11097	6.65	2.4866413987388
19	11132	6.66	2.4866411931968
19	11133	6.67	2.486640993046
19	11134	6.68	2.486640798221
19	11135	6.69	2.4866406086551
19	11136	6.7	2.486640424283
19	11175	6.71	2.4866402450378
19	11210	6.72	2.4866400708558
19	11245	6.73	2.4866399016714
19	11246	6.74	2.4866397374193
19	11247	6.75	2.4866395780342
19	11282	6.76	2.4866394234535
19	11283	6.77	2.486639273612
19	11284	6.78	2.486639128447
19	11285	6.79	2.4866389878947
19	11286	6.8	2.4866388518926
19	11325	6.81	2.4866387203781
19	11360	6.82	2.4866385932888
19	11395	6.83	2.4866384705637
19	11396	6.84	2.4866383521402
19	11397	6.85	2.4866382379572
19	11432	6.86	2.4866381279552
19	11433	6.87	2.4866380220731
19	11434	6.88	2.4866379202498
19	11435	6.89	2.4866378224272
19	11436	6.9	2.4866377285457
19	11475	6.91	2.4866376385456
19	11510	6.92	2.4866375523688
19	11545	6.93	2.4866374699587
19	11546	6.94	2.4866373912555
19	11547	6.95	2.4866373162026
19	11582	6.96	2.4866372447433
19	11583	6.97	2.4866371768208
19	11584	6.98	2.48663711238
19	11585	6.99	2.4866370513656
19	11590	7	2.4866369937208
19	11629	7.01	2.486636939392
19	11664	7.02	2.4866368883238
19	11699	7.03	2.4866368404625
19	11700	7.04	2.4866367957557
19	11701	7.05	2.4866367541498
19	11736	7.06	2.4866367155908
19	11737	7.07	2.4866366800279
19	11738	7.08	2.4866366474089
19	11739	7.09	2.4866366176828
19	11740	7.1	2.4866365907989
19	11779	7.11	2.4866365667062
19	11814	7.12	2.4866365453555
19	11849	7.13	2.4866365266957
19	11850	7.14	2.4866365106791
19	11851	7.15	2.4866364972562
19	11886	7.16	2.4866364863791
19	11887	7.17	2.486636478
19	11888	7.18	2.4866364720723
19	11889	7.19	2.4866364685482
19	11890	7.2	2.4866364673813
19	11929	7.21	2.486636468525
19	11964	7.22	2.4866364719344
19	11999	7.23	2.4866364775645
19	12000	7.24	2.4866364853705
19	12001	7.25	2.4866364953087
19	12036	7.26	2.4866365073358
19	12037	7.27	2.4866365214067
19	12038	7.28	2.4866365374794
19	12039	7.29	2.486636555512
19	12040	7.3	2.4866365754623
19	12079	7.31	2.4866365972885
19	12114	7.32	2.4866366209499
19	12149	7.33	2.486636646406
19	12150	7.34	2.4866366736163
19	12151	7.35	2.4866367025402
19	12186	7.36	2.4866367331403
19	12187	7.37	2.4866367653759
19	12188	7.38	2.4866367992094
19	12189	7.39	2.4866368346033
19	12190	7.4	2.4866368715201
19	12229	7.41	2.4866369099221
19	12264	7.42	2.4866369497718
19	12299	7.43	2.4866369910345
19	12300	7.44	2.4866370336742
19	12301	7.45	2.4866370776548
19	12336	7.46	2.4866371229417
19	12337	7.47	2.4866371695002
19	12338	7.48	2.4866372172973
19	12339	7.49	2.4866372662983
19	12340	7.5	2.4866373164701
19	12379	7.51	2.4866373677811
19	12414	7.52	2.4866374201966
19	12449	7.53	2.4866374736866
19	12450	7.54	2.4866375282193
19	12451	7.55	2.4866375837632
19	12486	7.56	2.4866376402865
19	12487	7.57	2.4866376977607
19	12488	7.58	2.4866377561555
19	12489	7.59	2.4866378154409
19	12490	7.6	2.4866378755882
19	12530	7.61	2.4866379365686
19	12777	7.62	2.4866379983536
19	12812	7.63	2.4866380609145
19	12813	7.64	2.4866381242255
19	12814	7.65	2.4866381882581
19	12850	7.66	2.4866382529865
19	12851	7.67	2.4866383183835
19	12852	7.68	2.4866383844235
19	12853	7.69	2.4866384510824
19	12854	7.7	2.4866385183328
19	12893	7.71	2.4866385861506
19	12928	7.72	2.4866386545116
19	12963	7.73	2.4866387233917
19	12964	7.74	2.4866387927681
19	12965	7.75	2.4866388626166
19	13000	7.76	2.4866389329146
19	13001	7.77	2.4866390036392
19	13002	7.78	2.4866390747679
19	13003	7.79	2.4866391462794
19	13004	7.8	2.486639218151
19	13043	7.81	2.486639290363
19	13078	7.82	2.4866393628942
19	13113	7.83	2.4866394357234
19	13114	7.84	2.4866395088308
19	13115	7.85	2.4866395821968
19	13150	7.86	2.4866396558016
19	13151	7.87	2.486639729627
19	13152	7.88	2.4866398036532
19	13153	7.89	2.4866398778622
19	13154	7.9	2.4866399522356
19	13193	7.91	2.4866400267568
19	13228	7.92	2.4866401014075
19	13263	7.93	2.4866401761694
19	13264	7.94	2.4866402510275
19	13265	7.95	2.4866403259633
19	13300	7.96	2.4866404009618
19	13301	7.97	2.4866404760077
19	13302	7.98	2.4866405510843
19	13303	7.99	2.4866406261763
19	13308	8	2.4866407012685
19	13347	8.01	2.4866407763472
19	13382	8.02	2.4866408513971
19	13417	8.03	2.4866409264046
19	13418	8.04	2.486641001356
19	13419	8.05	2.4866410762358
19	13454	8.06	2.4866411510321
19	13455	8.07	2.4866412257325
19	13456	8.08	2.4866413003232
19	13457	8.09	2.4866413747922
19	13458	8.1	2.4866414491271
19	13497	8.11	2.4866415233172
19	13532	8.12	2.4866415973488
19	13567	8.13	2.4866416712112
19	13568	8.14	2.4866417448936
19	13569	8.15	2.4866418183853
19	13604	8.16	2.4866418916756
19	13605	8.17	2.4866419647538
19	13606	8.18	2.4866420376091
19	13607	8.19	2.4866421102324
19	13608	8.2	2.4866421826128
19	13647	8.21	2.4866422547427
19	13682	8.22	2.4866423266113
19	13717	8.23	2.486642398211
19	13718	8.24	2.4866424695324
19	13719	8.25	2.4866425405664
19	13754	8.26	2.4866426113053
19	13755	8.27	2.4866426817414
19	13756	8.28	2.4866427518653
19	13757	8.29	2.486642821671
19	13758	8.3	2.4866428911506
19	13797	8.31	2.4866429602965
19	13832	8.32	2.4866430291025
19	13867	8.33	2.4866430975608
19	13868	8.34	2.4866431656652
19	13869	8.35	2.4866432334096
19	13904	8.36	2.4866433007861
19	13905	8.37	2.4866433677901
19	13906	8.38	2.4866434344169
19	13907	8.39	2.4866435006588
19	13908	8.4	2.4866435665111
19	13947	8.41	2.486643631969
19	13982	8.42	2.4866436970263
19	14017	8.43	2.4866437616799
19	14018	8.44	2.4866438259236
19	14019	8.45	2.4866438897525
19	14054	8.46	2.4866439531637
19	14055	8.47	2.4866440161522
19	14056	8.48	2.4866440787135
19	14057	8.49	2.4866441408444
19	14058	8.5	2.4866442025416
19	14097	8.51	2.4866442638005
19	14132	8.52	2.4866443246178
19	14167	8.53	2.4866443849903
19	14168	8.54	2.486644444915
19	14169	8.55	2.4866445043885
19	14204	8.56	2.4866445634093
[...]
2	63155	55.23	931.55726268403
2	63156	55.24	931.69615168374
2	63157	55.25	931.83504068346
2	63176	55.26	931.97392968317
2	63177	55.27	932.11281868289
2	63178	55.28	932.2517076826
2	63179	55.29	932.39059668231
2	63180	55.3	932.52948568203
2	63183	55.31	932.66837468175
2	63184	55.32	932.80726368146
2	63203	55.33	932.94615268118
2	63204	55.34	933.0850416809
2	63205	55.35	933.22393068061
2	63224	55.36	933.36281968033
2	63225	55.37	933.50170868005
2	63226	55.38	933.64059767977
2	63227	55.39	933.77948667949
2	63228	55.4	933.91837567921
2	63231	55.41	934.05726467893
2	63232	55.42	934.19615367865
2	63251	55.43	934.33504267837
2	63252	55.44	934.47393167809
2	63253	55.45	934.61282067782
2	63272	55.46	934.75170967754
2	63273	55.47	934.89059867726
2	63274	55.48	935.02948767698
2	63275	55.49	935.16837667671
2	63276	55.5	935.30726567643
2	63279	55.51	935.44615467616
2	63280	55.52	935.58504367588
2	63299	55.53	935.72393267561
2	63300	55.54	935.86282167533
2	63301	55.55	936.00171067506
2	63320	55.56	936.14059967479
2	63321	55.57	936.27948867451
2	63322	55.58	936.41837767424
2	63323	55.59	936.55726667397
2	63324	55.6	936.6961556737
2	63327	55.61	936.83504467343
2	63328	55.62	936.97393367316
2	63347	55.63	937.11282267289
2	63348	55.64	937.25171167262
2	63349	55.65	937.39060067235
2	63368	55.66	937.52948967208
2	63369	55.67	937.66837867181
2	63370	55.68	937.80726767154
2	63371	55.69	937.94615667127
2	63372	55.7	938.08504567101
2	63375	55.71	938.22393467074
2	63376	55.72	938.36282367047
2	63395	55.73	938.50171267021
2	63396	55.74	938.64060166994
2	63397	55.75	938.77949066968
2	63416	55.76	938.91837966941
2	63417	55.77	939.05726866915
2	63418	55.78	939.19615766888
2	63419	55.79	939.33504666862
2	63420	55.8	939.47393566836
2	63423	55.81	939.61282466809
2	63424	55.82	939.75171366783
2	63443	55.83	939.89060266757
2	63444	55.84	940.02949166731
2	63445	55.85	940.16838066705
2	63464	55.86	940.30726966679
2	63465	55.87	940.44615866653
2	63466	55.88	940.58504766627
2	63467	55.89	940.72393666601
2	63468	55.9	940.86282566575
2	63471	55.91	941.00171466549
2	63472	55.92	941.14060366523
2	63491	55.93	941.27949266497
2	63492	55.94	941.41838166472
2	63493	55.95	941.55727066446
2	63512	55.96	941.6961596642
2	63513	55.97	941.83504866395
2	63514	55.98	941.97393766369
2	63515	55.99	942.11282666343
2	63518	56	942.25171566318
2	63521	56.01	942.39060466292
2	63522	56.02	942.52949366267
2	63541	56.03	942.66838266242
2	63542	56.04	942.80727166216
2	63543	56.05	942.94616066191
2	63562	56.06	943.08504966166
2	63563	56.07	943.2239386614
2	63564	56.08	943.36282766115
2	63565	56.09	943.5017166609
2	63566	56.1	943.64060566065
2	63569	56.11	943.7794946604
2	63570	56.12	943.91838366015
2	63589	56.13	944.0572726599
2	63590	56.14	944.19616165965
2	63591	56.15	944.3350506594
2	63610	56.16	944.47393965915
2	63611	56.17	944.6128286589
2	63612	56.18	944.75171765866
2	63613	56.19	944.89060665841
2	63614	56.2	945.02949565816
2	63617	56.21	945.16838465791
2	63618	56.22	945.30727365767
2	63637	56.23	945.44616265742
2	63638	56.24	945.58505165718
2	63639	56.25	945.72394065693
2	63658	56.26	945.86282965669
2	63659	56.27	946.00171865644
2	63660	56.28	946.1406076562
2	63661	56.29	946.27949665595
2	63662	56.3	946.41838565571
2	63665	56.31	946.55727465547
2	63666	56.32	946.69616365522
2	63685	56.33	946.83505265498
2	63686	56.34	946.97394165474
2	63687	56.35	947.1128306545
2	63706	56.36	947.25171965426
2	63707	56.37	947.39060865402
2	63708	56.38	947.52949765378
2	63709	56.39	947.66838665354
2	63710	56.4	947.8072756533
2	63713	56.41	947.94616465306
2	63714	56.42	948.08505365282
2	63733	56.43	948.22394265258
2	63734	56.44	948.36283165234
2	63735	56.45	948.5017206521
2	63754	56.46	948.64060965187
2	63755	56.47	948.77949865163
2	63756	56.48	948.91838765139
2	63757	56.49	949.05727665116
2	63758	56.5	949.19616565092
2	63761	56.51	949.33505465069
2	63762	56.52	949.47394365045
2	63781	56.53	949.61283265022
2	63782	56.54	949.75172164998
2	63783	56.55	949.89061064975
2	63802	56.56	950.02949964951
2	63803	56.57	950.16838864928
2	63804	56.58	950.30727764905
2	63805	56.59	950.44616664881
2	63806	56.6	950.58505564858
2	63809	56.61	950.72394464835
2	63810	56.62	950.86283364812
2	63829	56.63	951.00172264789
2	63830	56.64	951.14061164766
2	63831	56.65	951.27950064743
2	63850	56.66	951.4183896472
2	63851	56.67	951.55727864697
2	63852	56.68	951.69616764674
2	63853	56.69	951.83505664651
2	63854	56.7	951.97394564628
2	63857	56.71	952.11283464605
2	63858	56.72	952.25172364582
2	63877	56.73	952.3906126456
2	63878	56.74	952.52950164537
2	63879	56.75	952.66839064514
2	63898	56.76	952.80727964491
2	63899	56.77	952.94616864469
2	63900	56.78	953.08505764446
2	63901	56.79	953.22394664424
2	63902	56.8	953.36283564401
2	63905	56.81	953.50172464379
2	63906	56.82	953.64061364356
2	63925	56.83	953.77950264334
2	63926	56.84	953.91839164312
2	63927	56.85	954.05728064289
2	63946	56.86	954.19616964267
2	63947	56.87	954.33505864245
2	63948	56.88	954.47394764222
2	63949	56.89	954.612836642
2	63950	56.9	954.75172564178
2	63953	56.91	954.89061464156
2	63954	56.92	955.02950364134
2	63973	56.93	955.16839264112
2	63974	56.94	955.3072816409
2	63975	56.95	955.44617064068
2	63994	56.96	955.58505964046
2	63995	56.97	955.72394864024
2	63996	56.98	955.86283764002
2	63997	56.99	956.0017266398
2	64000	57	956.14061563958
2	64003	57.01	956.27950463937
2	64004	57.02	956.41839363915
2	64023	57.03	956.55728263893
2	64024	57.04	956.69617163871
2	64025	57.05	956.8350606385
2	64044	57.06	956.97394963828
2	64045	57.07	957.11283863806
2	64046	57.08	957.25172763785
2	64047	57.09	957.39061663763
2	64048	57.1	957.52950563742
2	64051	57.11	957.66839463721
2	64052	57.12	957.80728363699
2	64071	57.13	957.94617263678
2	64072	57.14	958.08506163656
2	64073	57.15	958.22395063635
2	64092	57.16	958.36283963614
2	64093	57.17	958.50172863593
2	64094	57.18	958.64061763571
2	64095	57.19	958.7795066355
2	64096	57.2	958.91839563529
2	64099	57.21	959.05728463508
2	64100	57.22	959.19617363487
2	64119	57.23	959.33506263466
2	64120	57.24	959.47395163445
2	64121	57.25	959.61284063424
2	64140	57.26	959.75172963403
2	64141	57.27	959.89061863382
2	64142	57.28	960.02950763361
2	64143	57.29	960.1683966334
2	64144	57.3	960.30728563319
2	64147	57.31	960.44617463299
2	64148	57.32	960.58506363278
2	64167	57.33	960.72395263257
2	64168	57.34	960.86284163236
2	64169	57.35	961.00173063216
2	64188	57.36	961.14061963195
2	64189	57.37	961.27950863174
2	64190	57.38	961.41839763154
2	64191	57.39	961.55728663133
2	64192	57.4	961.69617563113
2	64195	57.41	961.83506463092
2	64196	57.42	961.97395363072
2	64215	57.43	962.11284263052
2	64216	57.44	962.25173163031
2	64217	57.45	962.39062063011
2	64236	57.46	962.52950962991
2	64237	57.47	962.6683986297
2	64238	57.48	962.8072876295
2	64239	57.49	962.9461766293
2	64240	57.5	963.0850656291
2	64243	57.51	963.22395462889
2	64244	57.52	963.36284362869
2	64263	57.53	963.50173262849
2	64264	57.54	963.64062162829
2	64265	57.55	963.77951062809
2	64284	57.56	963.91839962789
2	64285	57.57	964.05728862769
2	64286	57.58	964.19617762749
2	64287	57.59	964.33506662729
2	64288	57.6	964.4739556271
2	64291	57.61	964.6128446269
2	64292	57.62	964.7517336267
2	64311	57.63	964.8906226265
2	64312	57.64	965.0295116263
2	64313	57.65	965.16840062611
2	64332	57.66	965.30728962591
2	64333	57.67	965.44617862571
2	64334	57.68	965.58506762552
2	64335	57.69	965.72395662532
2	64336	57.7	965.86284562513
2	64339	57.71	966.00173462493
2	64340	57.72	966.14062362474
2	64359	57.73	966.27951262454
2	64360	57.74	966.41840162435
2	64361	57.75	966.55729062415
2	64380	57.76	966.69617962396
2	64381	57.77	966.83506862377
2	64382	57.78	966.97395762357
2	64383	57.79	967.11284662338
2	64384	57.8	967.25173562319
2	64387	57.81	967.39062462299
2	64388	57.82	967.5295136228
2	64407	57.83	967.66840262261
2	64408	57.84	967.80729162242
2	64409	57.85	967.94618062223
2	64428	57.86	968.08506962204
2	64429	57.87	968.22395862185
2	64430	57.88	968.36284762166
2	64431	57.89	968.50173662147
2	64432	57.9	968.64062562128
2	64435	57.91	968.77951462109
2	64436	57.92	968.9184036209
2	64455	57.93	969.05729262071
2	64456	57.94	969.19618162052
2	64457	57.95	969.33507062033
2	64476	57.96	969.47395962015
2	64477	57.97	969.61284861996
2	64478	57.98	969.75173761977
2	64479	57.99	969.89062661958
2	64482	58	970.0295156194
2	64485	58.01	970.16840461921
2	64486	58.02	970.30729361903
2	64505	58.03	970.44618261884
2	64506	58.04	970.58507161865
2	64507	58.05	970.72396061847
2	64526	58.06	970.86284961828
2	64527	58.07	971.0017386181
2	64528	58.08	971.14062761791
2	64529	58.09	971.27951661773
2	64530	58.1	971.41840561755
2	64533	58.11	971.55729461736
2	64534	58.12	971.69618361718
2	64553	58.13	971.835072617
2	64554	58.14	971.97396161681
2	64555	58.15	972.11285061663
2	64574	58.16	972.25173961645
2	64575	58.17	972.39062861627
2	64576	58.18	972.52951761609
2	64577	58.19	972.66840661591
2	64578	58.2	972.80729561573
2	64581	58.21	972.94618461554
2	64582	58.22	973.08507361536
2	64601	58.23	973.22396261518
2	64602	58.24	973.362851615
2	64603	58.25	973.50174061482
2	64622	58.26	973.64062961465
2	64623	58.27	973.77951861447
2	64624	58.28	973.91840761429
2	64625	58.29	974.05729661411
2	64626	58.3	974.19618561393
2	64629	58.31	974.33507461375
2	64630	58.32	974.47396361358
2	64649	58.33	974.6128526134
2	64650	58.34	974.75174161322
2	64651	58.35	974.89063061304
2	64670	58.36	975.02951961287
2	64671	58.37	975.16840861269
2	64672	58.38	975.30729761252
2	64673	58.39	975.44618661234
2	64674	58.4	975.58507561217
2	64677	58.41	975.72396461199
2	64678	58.42	975.86285361182
2	64697	58.43	976.00174261164
2	64698	58.44	976.14063161147
2	64699	58.45	976.27952061129
2	64718	58.46	976.41840961112
2	64719	58.47	976.55729861095
2	64720	58.48	976.69618761077
2	64721	58.49	976.8350766106
2	64722	58.5	976.97396561043
2	64725	58.51	977.11285461025
2	64726	58.52	977.25174361008
2	64745	58.53	977.39063260991
2	64746	58.54	977.52952160974
2	64747	58.55	977.66841060957
2	64766	58.56	977.8072996094
2	64767	58.57	977.94618860923
2	64768	58.58	978.08507760906
2	64769	58.59	978.22396660889
2	64770	58.6	978.36285560872
2	64773	58.61	978.50174460855
2	64774	58.62	978.64063360838
2	64793	58.63	978.77952260821
2	64794	58.64	978.91841160804
2	64795	58.65	979.05730060787
2	64814	58.66	979.1961896077
2	64815	58.67	979.33507860753
2	64816	58.68	979.47396760736
2	64817	58.69	979.6128566072
2	64818	58.7	979.75174560703
2	64821	58.71	979.89063460686
2	64822	58.72	980.0295236067
2	64841	58.73	980.16841260653
2	64842	58.74	980.30730160636
2	64843	58.75	980.4461906062
2	64862	58.76	980.58507960603
2	64863	58.77	980.72396860587
2	64864	58.78	980.8628576057
2	64865	58.79	981.00174660554
2	64866	58.8	981.14063560537
2	64869	58.81	981.27952460521
2	64870	58.82	981.41841360504
2	64889	58.83	981.55730260488
2	64890	58.84	981.69619160471
2	64891	58.85	981.83508060455
2	64910	58.86	981.97396960439
2	64911	58.87	982.11285860422
2	64912	58.88	982.25174760406
2	64913	58.89	982.3906366039
2	64914	58.9	982.52952560374
2	64917	58.91	982.66841460358
2	64918	58.92	982.80730360341
2	64937	58.93	982.94619260325
2	64938	58.94	983.08508160309
2	64939	58.95	983.22397060293
2	64958	58.96	983.36285960277
2	64959	58.97	983.50174860261
2	64960	58.98	983.64063760245
2	64961	58.99	983.77952660229
2	64964	59	983.91841560213
2	64967	59.01	984.05730460197
2	64968	59.02	984.19619360181
2	64987	59.03	984.33508260165
2	64988	59.04	984.47397160149
2	64989	59.05	984.61286060133
2	65008	59.06	984.75174960118
2	65009	59.07	984.89063860102
2	65010	59.08	985.02952760086
2	65011	59.09	985.1684166007
2	65012	59.1	985.30730560055
2	65015	59.11	985.44619460039
2	65016	59.12	985.58508360023
2	65035	59.13	985.72397260008
2	65036	59.14	985.86286159992
2	65037	59.15	986.00175059976
2	65056	59.16	986.14063959961
2	65057	59.17	986.27952859945
2	65058	59.18	986.4184175993
2	65059	59.19	986.55730659914
2	65060	59.2	986.69619559899
2	65063	59.21	986.83508459883
2	65064	59.22	986.97397359868
2	65083	59.23	987.11286259852
2	65084	59.24	987.25175159837
2	65085	59.25	987.39064059822
2	65104	59.26	987.52952959806
2	65105	59.27	987.66841859791
2	65106	59.28	987.80730759776
2	65107	59.29	987.94619659761
2	65108	59.3	988.08508559745
2	65111	59.31	988.2239745973
2	65112	59.32	988.36286359715
2	65131	59.33	988.501752597
2	65132	59.34	988.64064159685
2	65133	59.35	988.77953059669
2	65152	59.36	988.91841959654
2	65153	59.37	989.05730859639
2	65154	59.38	989.19619759624
2	65155	59.39	989.33508659609
2	65156	59.4	989.47397559594
2	65159	59.41	989.61286459579
2	65160	59.42	989.75175359564
2	65179	59.43	989.89064259549
2	65180	59.44	990.02953159534
2	65181	59.45	990.1684205952
2	65200	59.46	990.30730959505
2	65201	59.47	990.4461985949
2	65202	59.48	990.58508759475
2	65203	59.49	990.7239765946
2	65204	59.5	990.86286559446
2	65207	59.51	991.00175459431
2	65208	59.52	991.14064359416
2	65227	59.53	991.27953259401
2	65228	59.54	991.41842159387
2	65229	59.55	991.55731059372
2	65248	59.56	991.69619959357
2	65249	59.57	991.83508859343
2	65250	59.58	991.97397759328
2	65251	59.59	992.11286659314
2	65252	59.6	992.25175559299
2	65255	59.61	992.39064459285
2	65256	59.62	992.5295335927
2	65275	59.63	992.66842259256
2	65276	59.64	992.80731159241
2	65277	59.65	992.94620059227
2	65296	59.66	993.08508959212
2	65297	59.67	993.22397859198
2	65298	59.68	993.36286759183
2	65299	59.69	993.50175659169
2	65300	59.7	993.64064559155
2	65303	59.71	993.77953459141
2	65304	59.72	993.91842359126
2	65323	59.73	994.05731259112
2	65324	59.74	994.19620159098
2	65325	59.75	994.33509059084
2	65344	59.76	994.47397959069
2	65345	59.77	994.61286859055
2	65346	59.78	994.75175759041
2	65347	59.79	994.89064659027
2	65348	59.8	995.02953559013
2	65351	59.81	995.16842458999
2	65352	59.82	995.30731358985
2	65371	59.83	995.44620258971
2	65372	59.84	995.58509158957
2	65373	59.85	995.72398058943
2	65392	59.86	995.86286958929
2	65393	59.87	996.00175858915
2	65394	59.88	996.14064758901
2	65395	59.89	996.27953658887
2	65396	59.9	996.41842558873
2	65399	59.91	996.55731458859
2	65400	59.92	996.69620358845
2	65419	59.93	996.83509258832
2	65420	59.94	996.97398158818
2	65421	59.95	997.11287058804
2	65440	59.96	997.2517595879
2	65441	59.97	997.39064858777
2	65442	59.98	997.52953758763
2	65443	59.99	997.66842658749
2	65446	60	997.80731558736
2	65449	60.01	997.94620458722
2	65450	60.02	998.08509358708
2	65469	60.03	998.22398258695
2	65470	60.04	998.36287158681
2	65471	60.05	998.50176058668
2	65490	60.06	998.64064958654
2	65491	60.07	998.77953858641
2	65492	60.08	998.91842758627
2	65493	60.09	999.05731658614
2	65494	60.1	999.196205586
2	65497	60.11	999.33509458587
2	65498	60.12	999.47398358573
2	65517	60.13	999.6128725856
2	65518	60.14	999.75176158547
2	65519	60.15	999.89065058533
2	65538	60.16	1000.0295395852
2	65539	60.17	1000.1684285851
2	65540	60.18	1000.3073175849
2	65541	60.19	1000.4462065848
2	65542	60.2	1000.5850955847
2	65545	60.21	1000.7239845845
2	65546	60.22	1000.8628735844
2	65565	60.23	1001.0017625843
2	65566	60.24	1001.1406515841
2	65567	60.25	1001.279540584
2	65586	60.26	1001.4184295839
2	65587	60.27	1001.5573185837
2	65588	60.28	1001.6962075836
2	65589	60.29	1001.8350965835
2	65590	60.3	1001.9739855834
2	65593	60.31	1002.1128745832
2	65594	60.32	1002.2517635831
2	65613	60.33	1002.390652583
2	65614	60.34	1002.5295415828
2	65615	60.35	1002.6684305827
2	65634	60.36	1002.8073195826
2	65635	60.37	1002.9462085824
2	65636	60.38	1003.0850975823
2	65637	60.39	1003.2239865822
2	65638	60.4	1003.3628755821
2	65641	60.41	1003.5017645819
2	65642	60.42	1003.6406535818
2	65661	60.43	1003.7795425817
2	65662	60.44	1003.9184315816
2	65663	60.45	1004.0573205814
2	65682	60.46	1004.1962095813
2	65683	60.47	1004.3350985812
2	65684	60.48	1004.473987581
2	65685	60.49	1004.6128765809
2	65686	60.5	1004.7517655808
2	65689	60.51	1004.8906545807
2	65690	60.52	1005.0295435805
2	65709	60.53	1005.1684325804
2	65710	60.54	1005.3073215803
2	65711	60.55	1005.4462105802
2	65730	60.56	1005.58509958
2	65731	60.57	1005.7239885799
2	65732	60.58	1005.8628775798
2	65733	60.59	1006.0017665797
2	65734	60.6	1006.1406555795
2	65737	60.61	1006.2795445794
2	65738	60.62	1006.4184335793
2	65757	60.63	1006.5573225792
2	65758	60.64	1006.696211579
2	65759	60.65	1006.8351005789
2	65778	60.66	1006.9739895788
2	65779	60.67	1007.1128785787
2	65780	60.68	1007.2517675786
2	65781	60.69	1007.3906565784
2	65782	60.7	1007.5295455783
2	65785	60.71	1007.6684345782
2	65786	60.72	1007.8073235781
2	65805	60.73	1007.9462125779
2	65806	60.74	1008.0851015778
2	65807	60.75	1008.2239905777
2	65826	60.76	1008.3628795776
2	65827	60.77	1008.5017685775
2	65828	60.78	1008.6406575773
2	65829	60.79	1008.7795465772
2	65830	60.8	1008.9184355771
2	65833	60.81	1009.057324577
2	65834	60.82	1009.1962135769
2	65853	60.83	1009.3351025767
2	65854	60.84	1009.4739915766
2	65855	60.85	1009.6128805765
2	65874	60.86	1009.7517695764
2	65875	60.87	1009.8906585763
2	65876	60.88	1010.0295475761
2	65877	60.89	1010.168436576
2	65878	60.9	1010.3073255759
2	65881	60.91	1010.4462145758
2	65882	60.92	1010.5851035757
2	65901	60.93	1010.7239925755
2	65902	60.94	1010.8628815754
2	65903	60.95	1011.0017705753
2	65922	60.96	1011.1406595752
2	65923	60.97	1011.2795485751
2	65924	60.98	1011.418437575
2	65925	60.99	1011.5573265748
2	65928	61	1011.6962155747
2	65931	61.01	1011.8351045746
2	65932	61.02	1011.9739935745
2	65951	61.03	1012.1128825744
2	65952	61.04	1012.2517715743
2	65953	61.05	1012.3906605741
2	65972	61.06	1012.529549574
2	65973	61.07	1012.6684385739
2	65974	61.08	1012.8073275738
2	65975	61.09	1012.9462165737
2	65976	61.1	1013.0851055736
2	65979	61.11	1013.2239945734
2	65980	61.12	1013.3628835733
2	65999	61.13	1013.5017725732
2	66000	61.14	1013.6406615731
2	66001	61.15	1013.779550573
2	66020	61.16	1013.9184395729
2	66021	61.17	1014.0573285728
2	66022	61.18	1014.1962175726
2	66023	61.19	1014.3351065725
2	66024	61.2	1014.4739955724
2	66027	61.21	1014.6128845723
2	66028	61.22	1014.7517735722
2	66047	61.23	1014.8906625721
2	66048	61.24	1015.029551572
2	66049	61.25	1015.1684405719
2	66068	61.26	1015.3073295717
2	66069	61.27	1015.4462185716
2	66070	61.28	1015.5851075715
2	66071	61.29	1015.7239965714
2	66072	61.3	1015.8628855713
2	66075	61.31	1016.0017745712
2	66076	61.32	1016.1406660221
2	66087	61.33	1016.2795647778
2	66088	61.34	1016.4184755972
2	66089	61.35	1016.5574031456
2	66090	61.36	1016.6963519969
2	66091	61.37	1016.8353266355
2	66092	61.38	1016.9743314577
2	66093	61.39	1017.1133707735
2	66094	61.4	1017.2524488086
2	66096	61.41	1017.3915697058
2	66097	61.42	1017.5307375265
2	66108	61.43	1017.6699562528
2	66109	61.44	1017.8092297883
2	66110	61.45	1017.9485619604
2	66111	61.46	1018.0879565212
2	66112	61.47	1018.2274171495
2	66113	61.48	1018.3669474518
2	66114	61.49	1018.5065509638
2	66115	61.5	1018.646231152
2	66117	61.51	1018.785991415
2	66118	61.52	1018.9258350845
2	66129	61.53	1019.0657654273
2	66130	61.54	1019.2057856456
2	66131	61.55	1019.3458988793
2	66132	61.56	1019.4861082064
2	66133	61.57	1019.6264166448
2	66134	61.58	1019.766827153
2	66135	61.59	1019.9073426316
2	66136	61.6	1020.0479659244
2	66138	61.61	1020.1886998192
2	66139	61.62	1020.3295470495
2	66150	61.63	1020.4705102949
2	66151	61.64	1020.6115921824
2	66152	61.65	1020.7527952879
2	66153	61.66	1020.8941221364
2	66154	61.67	1021.0355752036
2	66155	61.68	1021.1771569165
2	66156	61.69	1021.3188696547
2	66157	61.7	1021.4607157509
2	66159	61.71	1021.6026974923
2	66160	61.72	1021.7448171211
2	66171	61.73	1021.8870768356
2	66172	61.74	1022.029478791
2	66173	61.75	1022.1720251002
2	66174	61.76	1022.3147178347
2	66175	61.77	1022.4575590254
2	66176	61.78	1022.6005506634
2	66177	61.79	1022.7436947006
2	66178	61.8	1022.8869930508
2	66180	61.81	1023.0304475902
2	66181	61.82	1023.1740601582
2	66192	61.83	1023.3178325583
2	66193	61.84	1023.4617665583
2	66194	61.85	1023.6058638917
2	66195	61.86	1023.7501262577
2	66196	61.87	1023.8945553225
2	66197	61.88	1024.0391527193
2	66198	61.89	1024.1839200495
2	66199	61.9	1024.328858883
2	66201	61.91	1024.473970759
2	66202	61.92	1024.6192571865
2	66213	61.93	1024.7647196448

