version 3
run OvertakeNoGui-213-20241104-10:02:49-91279
attr configname OvertakeNoGui
attr datetime 20241104-10:02:49
attr datetimef 20241104-100249
attr experiment OvertakeNoGui
attr inifile omnetpp.ini
attr iterationvars "$leaderHeadway=1.2, $leaderSpeed=50, $controller=0, $pCSpeed=55, $pDeltaC=476"
attr iterationvarsd leaderHeadway=1.2/leaderSpeed=50/controller=0/pCSpeed=55/pDeltaC=476
attr iterationvarsf leaderHeadway=1.2,leaderSpeed=50,controller=0,pCSpeed=55,pDeltaC=476-
attr measurement "$leaderHeadway=1.2, $leaderSpeed=50, $controller=0, $pCSpeed=55, $pDeltaC=476"
attr network Overtake
attr processid 91279
attr repetition 0
attr replication #0
attr resultdir results
attr runnumber 213
attr seedset 0
itervar controller 0
itervar leaderHeadway 1.2
itervar leaderSpeed 50
itervar pCSpeed 55
itervar pDeltaC 476
config image-path ../../../../veins/images;../../images
config *.manager.command "\"sumo\""
config *.manager.ignoreGuiCommands true
config *.node[*].scenario_type "\"OvertakeScenario\""
config output-vector-file results/OvertakeNoGui_55_476_0.vec
config output-scalar-file results/OvertakeNoGui_55_476_0.sca
config cmdenv-express-mode false
config cmdenv-autoflush true
config cmdenv-status-frequency 10s
config num-rngs 6
config cmdenv-output-file log.txt
config cmdenv-redirect-output true
config network Overtake
config debug-on-errors true
config print-undisposed true
config *.playgroundSizeX 65000m
config *.playgroundSizeY 25000m
config *.playgroundSizeZ 50m
config sim-time-limit "360 s"
config *.annotations.draw false
config *.obstacles.debug false
config *.world.useTorus false
config *.world.use2D false
config *.manager.updateInterval 0.01s
config *.manager.host "\"localhost\""
config *.manager.moduleType "\"vtypeauto=org.car2x.plexe.PlatoonCar vtypehuman=0\""
config *.manager.moduleName "\"vtypeauto=node vtypehuman=0\""
config *.manager.moduleDisplayString "\"\""
config *.manager.autoShutdown true
config *.manager.margin 25
config *.manager.order -1
config *.connectionManager.sendDirect true
config *.connectionManager.maxInterfDist 2600m
config *.connectionManager.drawMaxIntfDist false
config *.**.nic.mac1609_4.useServiceChannel false
config *.**.nic.mac1609_4.txPower 100mW
config *.**.nic.mac1609_4.bitrate 6Mbps
config *.**.nic.mac1609_4.useAcks true
config *.**.nic.mac1609_4.ackErrorRate 0.0
config *.**.nic.mac1609_4.frameErrorRate 0.0
config *.**.nic.phy80211p.minPowerLevel -94dBm
config *.**.nic.phy80211p.maxTXPower 100mW
config *.**.nic.phy80211p.useNoiseFloor true
config *.**.nic.phy80211p.noiseFloor -95dBm
config *.**.nic.phy80211p.decider "xmldoc(\"config.xml\")"
config *.**.nic.phy80211p.analogueModels "xmldoc(\"config.xml\")"
config *.**.nic.phy80211p.usePropagationDelay true
config *.node[*].mobility.x 0
config *.node[*].mobility.y 0
config *.node[*].mobility.z 1.895
config *.shockwave[*].mobility.x 0
config *.shockwave[*].mobility.y 0
config *.shockwave[*].mobility.z 1.895
config seed-set 0
config **.seed 0
config *.node[*].prot.rng-0 2
config *.node[*].appl.rng-0 3
config *.node[*].scenario.rng-0 4
config *.manager.configFile "\"./sumocfg/overtake.sumo.cfg\""
config *.manager.launchConfig "xmldoc(\"./sumocfg/overtake.launchd.xml\")"
config *.node[*].helper_type "\"PositionHelper\""
config *.node[*].scenario.caccC1 0.5
config *.node[*].scenario.caccXi 1
config *.node[*].scenario.caccOmegaN "0.2 Hz"
config *.node[*].scenario.caccSpacing "5 m"
config *.node[*].scenario.engineTau "0.5 s"
config *.node[*].scenario.ploegH "0.5 s"
config *.node[*].scenario.ploegKp 0.2
config *.node[*].scenario.ploegKd 0.7
config *.node[*].scenario.useRealisticEngine false
config *.node[*].scenario.targetController "\"CACC\""
config *.node[*].scenario.accHeadway "0.1 s"
config *.node[*].scenario.leaderHeadway "1.2 s"
config *.node[*].scenario.leaderSpeed "50 kmph"
config *.node[*].appl_type "\"OvertakeApp\""
config *.node[*].appl.*.scalar-recording true
config *.node[*].appl.*.vector-recording true
config *.node[*].appl.overtakeManeuver "\"OvertakeManeuver\""
config *.node[*].protocol_type "\"SimplePlatooningBeaconing\""
config *.node[*].prot.*.scalar-recording true
config *.node[*].prot.*.vector-recording true
config *.node[*].prot.beaconingInterval "0.1 s"
config *.node[*].prot.priority 4
config *.node[*].prot.packetSize 200
config *.node[*].prot.useControllerAcceleration true
config **.traffic_type "\"OvertakeTrafficManager\""
config **.traffic.platoonInsertTime "0.1 s"
config **.traffic.platooningVType "\"vtypeauto\""
config **.numericController 0
config **.traffic.platoonInsertDistance 5m
config **.traffic.platoonInsertHeadway 0s
config **.traffic.platoonLeaderHeadway 1.2s
config **.traffic.platoonASpeed 50kmph
config **.traffic.platoonBSpeed 100kmph
config **.traffic.platoonCSpeed 55kmph
config **.traffic.platoonSizeA 2
config **.traffic.platoonSizeB 1
config **.traffic.platoonSizeC 1
config **.traffic.initialPositionDeltaA 150
config **.traffic.initialPositionDeltaB 50
config **.traffic.initialPositionDeltaC 476
config **.traffic.controller "\"CACC\""
config **.scalar-recording true
config **.vector-recording true

vector 0 Overtake.node[0].mobility posx ETV
vector 1 Overtake.node[0].mobility posy ETV
vector 2 Overtake.node[1].mobility posx ETV
vector 3 Overtake.node[1].mobility posy ETV
vector 4 Overtake.node[2].mobility posx ETV
vector 5 Overtake.node[2].mobility posy ETV
vector 6 Overtake.node[3].mobility posx ETV
vector 7 Overtake.node[3].mobility posy ETV
vector 8 Overtake.node[0].mobility speed ETV
vector 9 Overtake.node[1].mobility speed ETV
vector 10 Overtake.node[2].mobility speed ETV
vector 11 Overtake.node[3].mobility speed ETV
vector 12 Overtake.node[0].mobility acceleration ETV
vector 13 Overtake.node[0].mobility co2emission ETV
vector 14 Overtake.node[1].mobility acceleration ETV
vector 15 Overtake.node[1].mobility co2emission ETV
vector 16 Overtake.node[2].mobility acceleration ETV
vector 17 Overtake.node[2].mobility co2emission ETV
vector 18 Overtake.node[3].mobility acceleration ETV
vector 19 Overtake.node[3].mobility co2emission ETV
vector 20 Overtake.node[0].appl distance ETV
vector 21 Overtake.node[0].appl relativeSpeed ETV
vector 22 Overtake.node[0].appl nodeId ETV
vector 23 Overtake.node[0].appl acceleration ETV
vector 24 Overtake.node[0].appl controllerAcceleration ETV
vector 25 Overtake.node[0].appl speed ETV
vector 26 Overtake.node[0].appl posx ETV
vector 27 Overtake.node[0].appl posy ETV
vector 28 Overtake.node[1].appl distance ETV
vector 29 Overtake.node[1].appl relativeSpeed ETV
vector 30 Overtake.node[1].appl nodeId ETV
vector 31 Overtake.node[1].appl acceleration ETV
vector 32 Overtake.node[1].appl controllerAcceleration ETV
vector 33 Overtake.node[1].appl speed ETV
vector 34 Overtake.node[1].appl posx ETV
vector 35 Overtake.node[1].appl posy ETV
vector 36 Overtake.node[2].appl distance ETV
vector 37 Overtake.node[2].appl relativeSpeed ETV
vector 38 Overtake.node[2].appl nodeId ETV
vector 39 Overtake.node[2].appl acceleration ETV
vector 40 Overtake.node[2].appl controllerAcceleration ETV
vector 41 Overtake.node[2].appl speed ETV
vector 42 Overtake.node[2].appl posx ETV
vector 43 Overtake.node[2].appl posy ETV
vector 44 Overtake.node[3].appl distance ETV
vector 45 Overtake.node[3].appl relativeSpeed ETV
vector 46 Overtake.node[3].appl nodeId ETV
vector 47 Overtake.node[3].appl acceleration ETV
vector 48 Overtake.node[3].appl controllerAcceleration ETV
vector 49 Overtake.node[3].appl speed ETV
vector 50 Overtake.node[3].appl posx ETV
vector 51 Overtake.node[3].appl posy ETV
vector 52 Overtake.node[1].prot leaderDelay ETV
vector 53 Overtake.node[1].prot leaderDelayId ETV
vector 54 Overtake.node[1].prot frontDelay ETV
vector 55 Overtake.node[1].prot frontDelayId ETV
vector 56 Overtake.node[0].prot nodeId ETV
vector 57 Overtake.node[0].prot busyTime ETV
vector 58 Overtake.node[0].prot collisions ETV
vector 59 Overtake.node[1].prot nodeId ETV
vector 60 Overtake.node[1].prot busyTime ETV
vector 61 Overtake.node[1].prot collisions ETV
vector 62 Overtake.node[2].prot nodeId ETV
vector 63 Overtake.node[2].prot busyTime ETV
vector 64 Overtake.node[2].prot collisions ETV
vector 65 Overtake.node[3].prot nodeId ETV
vector 66 Overtake.node[3].prot busyTime ETV
vector 67 Overtake.node[3].prot collisions ETV
48	26	0.21	-0.00218518
48	176	0.31	-0.00213419
48	326	0.41	-0.00205408
48	476	0.51	-0.00195152
48	626	0.61	-0.00183238
48	776	0.71	-0.00170178
48	926	0.81	-0.00156412
48	1076	0.91	-0.00142314
48	1230	1.01	-0.00128196
48	1381	1.11	-0.00114315
48	1532	1.21	-0.00100877
48	1683	1.31	-0.000880447
48	2046	1.41	-0.000759381
48	2196	1.51	-0.000646445
48	2346	1.61	-0.000542204
48	2496	1.71	-0.000446965
48	2646	1.81	-0.000360819
48	2796	1.91	-0.000283678
48	2950	2.01	-0.000215307
48	3100	2.11	-0.000155357
48	3250	2.21	-0.000103391
48	3400	2.31	-5.89069e-05
48	3550	2.41	-2.13575e-05
48	3700	2.51	9.82919e-06
48	3850	2.61	3.52368e-05
48	4000	2.71	5.54479e-05
48	4150	2.81	7.10335e-05
48	4300	2.91	8.25451e-05
48	4454	3.01	9.05081e-05
48	4604	3.11	9.54172e-05
48	4754	3.21	9.7733e-05
48	4904	3.31	9.78798e-05
48	5054	3.41	9.62447e-05
48	5204	3.51	9.31771e-05
48	5354	3.61	8.89894e-05
48	5504	3.71	8.39579e-05
48	5654	3.81	7.83245e-05
48	5804	3.91	7.22983e-05
48	5958	4.01	6.6058e-05
48	6108	4.11	5.9754e-05
48	6258	4.21	5.35107e-05
48	6408	4.31	4.74294e-05
48	6558	4.41	4.15898e-05
48	6708	4.51	3.60534e-05
48	6858	4.61	3.0865e-05
48	7008	4.71	2.60551e-05
48	7158	4.81	2.16419e-05
48	7308	4.91	1.76335e-05
48	7462	5.01	1.40289e-05
48	7612	5.11	1.08202e-05
48	7762	5.21	7.99392e-06
48	7912	5.31	5.532e-06
48	8062	5.41	3.41315e-06
48	8212	5.51	1.61374e-06
48	8362	5.61	1.08654e-07
48	8512	5.71	-1.12799e-06
48	8662	5.81	-2.12224e-06
48	8812	5.91	-2.89981e-06
48	8966	6.01	-3.48567e-06
48	9116	6.11	-3.90376e-06
48	9266	6.21	-4.17673e-06
48	9416	6.31	-4.32574e-06
48	9566	6.41	-4.3704e-06
48	9716	6.51	-4.32865e-06
48	9866	6.61	-4.21676e-06
48	10016	6.71	-4.04934e-06
48	10166	6.81	-3.83937e-06
48	10316	6.91	-3.59826e-06
48	10470	7.01	-3.33592e-06
48	10620	7.11	-3.06089e-06
48	10770	7.21	-2.78036e-06
48	10920	7.31	-2.50036e-06
48	11070	7.41	-2.22582e-06
48	11220	7.51	-1.96068e-06
48	11370	7.61	-1.70801e-06
48	11520	7.71	-1.47009e-06
48	11670	7.81	-1.24855e-06
48	11820	7.91	-1.04441e-06
48	11974	8.01	-8.58219e-07
48	12124	8.11	-6.90082e-07
48	12274	8.21	-5.39774e-07
48	12424	8.31	-4.06788e-07
48	12574	8.41	-2.90397e-07
48	12724	8.51	-1.89707e-07
48	12874	8.61	-1.03704e-07
48	13024	8.71	-3.12912e-08
48	13174	8.81	2.86736e-08
48	13324	8.91	7.73515e-08
48	13478	9.01	1.15897e-07
48	13628	9.11	1.45439e-07
48	13778	9.21	1.67065e-07
48	13928	9.31	1.81809e-07
48	14078	9.41	1.90644e-07
48	14228	9.51	1.94472e-07
48	14378	9.61	1.94124e-07
48	14528	9.71	1.90357e-07
48	14678	9.81	1.83853e-07
48	14828	9.91	1.7522e-07
48	14982	10.01	1.64994e-07
48	15132	10.11	1.53647e-07
48	15282	10.21	1.41582e-07
48	15432	10.31	1.29145e-07
48	15582	10.41	1.16627e-07
48	15732	10.51	1.04265e-07
48	15882	10.61	9.22544e-08
48	16032	10.71	8.07466e-08
48	16182	10.81	6.98579e-08
48	16332	10.91	5.96724e-08
48	16486	11.01	5.02466e-08
48	16636	11.11	4.16129e-08
48	16786	11.21	3.37838e-08
48	16936	11.31	2.67553e-08
48	17087	11.41	2.05096e-08
48	17237	11.51	1.5018e-08
48	17387	11.61	1.02437e-08
48	17537	11.71	6.14335e-09
48	17687	11.81	2.66951e-09
48	17837	11.91	-2.28262e-10
48	17991	12.01	-2.6013e-09
48	18141	12.11	-4.50129e-09
48	18291	12.21	-5.97939e-09
48	18441	12.31	-7.08464e-09
48	18591	12.41	-7.86429e-09
48	18741	12.51	-8.36273e-09
48	18891	12.61	-8.62173e-09
48	19041	12.71	-8.67946e-09
48	19191	12.81	-8.57128e-09
48	19341	12.91	-8.32863e-09
48	19495	13.01	-7.98028e-09
48	19645	13.11	-7.55147e-09
48	19795	13.21	-7.06422e-09
48	19945	13.31	-6.5377e-09
48	20095	13.41	-5.98863e-09
48	20245	13.51	-5.43068e-09
48	20395	13.61	-4.87557e-09
48	20545	13.71	-4.33271e-09
48	20695	13.81	-3.80975e-09
48	20845	13.91	-3.31237e-09
48	20999	14.01	-2.84501e-09
48	21149	14.11	-2.41052e-09
48	21299	14.21	-2.01084e-09
48	21449	14.31	-1.64686e-09
48	21599	14.41	-1.31877e-09
48	21749	14.51	-1.02602e-09
48	21899	14.61	-7.67386e-10
48	22049	14.71	-5.41434e-10
48	22199	14.81	-3.4639e-10
48	22349	14.91	-1.803e-10
48	22503	15.01	-4.06786e-11
48	22653	15.11	7.4607e-11
48	22803	15.21	1.67866e-10
48	22953	15.31	2.41229e-10
48	23103	15.41	2.97184e-10
48	23253	15.51	3.37863e-10
48	23403	15.61	3.65041e-10
48	23553	15.71	3.80851e-10
48	23703	15.81	3.86891e-10
48	23853	15.91	3.85114e-10
48	24007	16.01	3.76588e-10
48	24157	16.11	3.6291e-10
48	24307	16.21	3.45146e-10
48	24457	16.31	3.24363e-10
48	24607	16.41	3.01625e-10
48	24757	16.51	2.77467e-10
48	24907	16.61	2.52598e-10
48	25057	16.71	2.27729e-10
48	25207	16.81	2.03215e-10
48	25357	16.91	1.79412e-10
48	25511	17.01	1.56675e-10
48	25661	17.11	1.35358e-10
48	25811	17.21	1.15286e-10
48	25961	17.31	9.68114e-11
48	26111	17.41	7.99361e-11
48	26261	17.51	6.46594e-11
48	26411	17.61	5.09814e-11
48	26561	17.71	3.89022e-11
48	26711	17.81	2.82441e-11
48	26861	17.91	1.9007e-11
48	27015	18.01	1.10134e-11
48	27165	18.11	4.44089e-12
48	27315	18.21	-1.24345e-12
48	27465	18.31	-5.68434e-12
48	27615	18.41	-9.41469e-12
48	27765	18.51	-1.22569e-11
48	27915	18.61	-1.43885e-11
48	28065	18.71	-1.58096e-11
48	28215	18.81	-1.66978e-11
48	28365	18.91	-1.72307e-11
48	28519	19.01	-1.72307e-11
48	28669	19.11	-1.7053e-11
48	28819	19.21	-1.65201e-11
48	28969	19.31	-1.58096e-11
48	29119	19.41	-1.5099e-11
48	29269	19.51	-1.40332e-11
48	29419	19.61	-1.29674e-11
48	29569	19.71	-1.20792e-11
48	29719	19.81	-1.10134e-11
48	29869	19.91	-9.9476e-12
48	30023	20.01	-8.88178e-12
48	30173	20.11	-7.99361e-12
48	30323	20.21	-6.92779e-12
48	30473	20.31	-5.86198e-12
48	30623	20.41	-4.9738e-12
48	30773	20.51	-4.08562e-12
48	30923	20.61	-3.19744e-12
48	31073	20.71	-2.4869e-12
48	31223	20.81	-1.77636e-12
48	31373	20.91	-1.24345e-12
48	31527	21.01	-7.10543e-13
48	31677	21.11	-1.77636e-13
48	31827	21.21	1.77636e-13
48	31977	21.31	7.10543e-13
48	32127	21.41	1.06581e-12
48	32277	21.51	1.42109e-12
48	32427	21.61	1.59872e-12
48	32577	21.71	1.95399e-12
48	32727	21.81	2.13163e-12
48	32877	21.91	2.30926e-12
48	33031	22.01	2.4869e-12
48	33181	22.11	2.66454e-12
48	33331	22.21	2.84217e-12
48	33481	22.31	3.01981e-12
48	33631	22.41	3.19744e-12
48	33781	22.51	3.37508e-12
48	33931	22.61	3.37508e-12
48	34081	22.71	3.55271e-12
48	34231	22.81	3.55271e-12
48	34381	22.91	3.73035e-12
48	34535	23.01	3.73035e-12
48	34685	23.11	3.90799e-12
48	34835	23.21	3.90799e-12
48	34985	23.31	3.90799e-12
48	35135	23.41	3.90799e-12
48	35285	23.51	4.08562e-12
48	35435	23.61	4.08562e-12
48	35585	23.71	4.08562e-12
48	35735	23.81	4.08562e-12
48	35885	23.91	4.08562e-12
48	36039	24.01	4.26326e-12
48	36189	24.11	4.26326e-12
48	36339	24.21	4.26326e-12
48	36489	24.31	4.26326e-12
48	36639	24.41	4.26326e-12
48	36789	24.51	4.26326e-12
48	36939	24.61	4.26326e-12
48	37089	24.71	4.26326e-12
48	37239	24.81	4.26326e-12
48	37389	24.91	4.26326e-12
48	37543	25.01	4.44089e-12
48	37693	25.11	4.44089e-12
48	37843	25.21	4.44089e-12
48	37993	25.31	4.44089e-12
48	38143	25.41	4.44089e-12
48	38293	25.51	4.44089e-12
48	38443	25.61	4.44089e-12
48	38593	25.71	4.44089e-12
48	38743	25.81	4.44089e-12
48	38893	25.91	4.44089e-12
48	39047	26.01	4.44089e-12
48	39197	26.11	4.44089e-12
48	39347	26.21	4.44089e-12
48	39497	26.31	4.44089e-12
48	39647	26.41	4.44089e-12
48	39797	26.51	4.44089e-12
48	39947	26.61	4.44089e-12
48	40097	26.71	4.44089e-12
48	40247	26.81	4.44089e-12
48	40397	26.91	4.44089e-12
48	40551	27.01	4.44089e-12
48	40701	27.11	4.44089e-12
48	40851	27.21	4.44089e-12
48	41001	27.31	4.44089e-12
48	41151	27.41	4.44089e-12
48	41301	27.51	4.44089e-12
48	41451	27.61	4.44089e-12
48	41601	27.71	4.44089e-12
48	41751	27.81	4.44089e-12
48	41901	27.91	4.44089e-12
48	42055	28.01	4.44089e-12
48	42205	28.11	4.44089e-12
48	42355	28.21	4.44089e-12
48	42505	28.31	4.44089e-12
48	42655	28.41	4.44089e-12
48	42805	28.51	4.44089e-12
48	42955	28.61	4.44089e-12
48	43105	28.71	4.44089e-12
48	43255	28.81	4.44089e-12
48	43405	28.91	4.44089e-12
48	43559	29.01	4.44089e-12
48	43709	29.11	4.44089e-12
48	43859	29.21	4.44089e-12
48	44009	29.31	4.44089e-12
48	44159	29.41	4.44089e-12
48	44309	29.51	4.44089e-12
48	44459	29.61	4.44089e-12
48	44609	29.71	4.44089e-12
48	44759	29.81	4.44089e-12
48	44909	29.91	4.44089e-12
48	45063	30.01	4.44089e-12
48	45213	30.11	4.44089e-12
48	45363	30.21	4.44089e-12
48	45513	30.31	4.44089e-12
48	45663	30.41	4.44089e-12
48	45813	30.51	4.44089e-12
48	45963	30.61	4.44089e-12
48	46113	30.71	4.44089e-12
48	46263	30.81	4.44089e-12
48	46413	30.91	4.44089e-12
48	46567	31.01	4.44089e-12
48	46717	31.11	4.44089e-12
48	46867	31.21	4.44089e-12
48	47017	31.31	4.44089e-12
48	47167	31.41	4.44089e-12
48	47317	31.51	4.44089e-12
48	47467	31.61	4.44089e-12
48	47617	31.71	4.44089e-12
48	47767	31.81	4.44089e-12
48	47917	31.91	4.44089e-12
48	48071	32.01	4.44089e-12
48	48221	32.11	4.44089e-12
48	48371	32.21	4.44089e-12
48	48521	32.31	4.44089e-12
48	48671	32.41	4.44089e-12
48	48821	32.51	4.44089e-12
48	48971	32.61	4.44089e-12
48	49121	32.71	4.44089e-12
48	49271	32.81	4.44089e-12
48	49421	32.91	4.44089e-12
48	49575	33.01	4.44089e-12
48	49725	33.11	4.44089e-12
48	49875	33.21	4.44089e-12
48	50025	33.31	4.44089e-12
48	50175	33.41	4.44089e-12
48	50325	33.51	4.44089e-12
48	50475	33.61	4.44089e-12
48	50625	33.71	4.44089e-12
48	50775	33.81	4.44089e-12
48	50925	33.91	4.44089e-12
48	51079	34.01	4.44089e-12
48	51229	34.11	4.44089e-12
48	51379	34.21	4.44089e-12
48	51529	34.31	4.44089e-12
48	51679	34.41	4.44089e-12
47	26	0.21	-0.000358191
47	176	0.31	-0.000681704
47	326	0.41	-0.00093487
47	476	0.51	-0.00112579
47	626	0.61	-0.00126221
47	776	0.71	-0.00135149
47	926	0.81	-0.00140049
47	1076	0.91	-0.00141557
47	1230	1.01	-0.00140255
47	1381	1.11	-0.00136671
47	1532	1.21	-0.0013128
47	1683	1.31	-0.00124502
47	2046	1.41	-0.0011671
47	2196	1.51	-0.00108223
47	2346	1.61	-0.000993208
47	2496	1.71	-0.000902362
47	2646	1.81	-0.000811651
47	2796	1.91	-0.000722679
47	2950	2.01	-0.000636729
47	3100	2.11	-0.0005548
47	3250	2.21	-0.000477639
47	3400	2.31	-0.000405773
47	3550	2.41	-0.00033954
47	3700	2.51	-0.000279116
47	3850	2.61	-0.000224541
47	4000	2.71	-0.000175743
47	4150	2.81	-0.00013256
47	4300	2.91	-9.47571e-05
47	4454	3.01	-6.2046e-05
47	4604	3.11	-3.40986e-05
47	4754	3.21	-1.05605e-05
47	4904	3.31	8.93844e-06
47	5054	3.41	2.4774e-05
47	5204	3.51	3.73203e-05
47	5354	3.61	4.69433e-05
47	5504	3.71	5.39956e-05
47	5654	3.81	5.88124e-05
47	5804	3.91	6.1709e-05
47	5958	4.01	6.29785e-05
47	6108	4.11	6.28903e-05
47	6258	4.21	6.169e-05
47	6408	4.31	5.95988e-05
47	6558	4.41	5.68144e-05
47	6708	4.51	5.35112e-05
47	6858	4.61	4.98416e-05
47	7008	4.71	4.59373e-05
47	7158	4.81	4.19105e-05
47	7308	4.91	3.78555e-05
47	7462	5.01	3.38499e-05
47	7612	5.11	2.99569e-05
47	7762	5.21	2.62259e-05
47	7912	5.31	2.26948e-05
47	8062	5.41	1.93911e-05
47	8212	5.51	1.6333e-05
47	8362	5.61	1.35314e-05
47	8512	5.71	1.09904e-05
47	8662	5.81	8.70882e-06
47	8812	5.91	6.6809e-06
47	8966	6.01	4.89747e-06
47	9116	6.11	3.3466e-06
47	9266	6.21	2.01432e-06
47	9416	6.31	8.85256e-07
47	9566	6.41	-5.68454e-08
47	9716	6.51	-8.28678e-07
47	9866	6.61	-1.44699e-06
47	10016	6.71	-1.92826e-06
47	10166	6.81	-2.28849e-06
47	10316	6.91	-2.54296e-06
47	10470	7.01	-2.7061e-06
47	10620	7.11	-2.79139e-06
47	10770	7.21	-2.8113e-06
47	10920	7.31	-2.77721e-06
47	11070	7.41	-2.69943e-06
47	11220	7.51	-2.58721e-06
47	11370	7.61	-2.44874e-06
47	11520	7.71	-2.29123e-06
47	11670	7.81	-2.12092e-06
47	11820	7.91	-1.94317e-06
47	11974	8.01	-1.7625e-06
47	12124	8.11	-1.58267e-06
47	12274	8.21	-1.40677e-06
47	12424	8.31	-1.23723e-06
47	12574	8.41	-1.07596e-06
47	12724	8.51	-9.24365e-07
47	12874	8.61	-7.83425e-07
47	13024	8.71	-6.53753e-07
47	13174	8.81	-5.35652e-07
47	13324	8.91	-4.29161e-07
47	13478	9.01	-3.34103e-07
47	13628	9.11	-2.5013e-07
47	13778	9.21	-1.76757e-07
47	13928	9.31	-1.13395e-07
47	14078	9.41	-5.93825e-08
47	14228	9.51	-1.40082e-08
47	14378	9.61	2.34655e-08
47	14528	9.71	5.37865e-08
47	14678	9.81	7.76954e-08
47	14828	9.91	9.59155e-08
47	14982	10.01	1.09142e-07
47	15132	10.11	1.18035e-07
47	15282	10.21	1.23213e-07
47	15432	10.31	1.25251e-07
47	15582	10.41	1.24676e-07
47	15732	10.51	1.21969e-07
47	15882	10.61	1.1756e-07
47	16032	10.71	1.11835e-07
47	16182	10.81	1.05132e-07
47	16332	10.91	9.77479e-08
47	16486	11.01	8.99371e-08
47	16636	11.11	8.19167e-08
47	16786	11.21	7.38678e-08
47	16936	11.31	6.59401e-08
47	17087	11.41	5.82538e-08
47	17237	11.51	5.09036e-08
47	17387	11.61	4.39611e-08
47	17537	11.71	3.7477e-08
47	17687	11.81	3.14856e-08
47	17837	11.91	2.60057e-08
47	17991	12.01	2.10441e-08
47	18141	12.11	1.65965e-08
47	18291	12.21	1.26501e-08
47	18441	12.31	9.1859e-09
47	18591	12.41	6.17906e-09
47	18741	12.51	3.60174e-09
47	18891	12.61	1.42268e-09
47	19041	12.71	-3.90443e-10
47	19191	12.81	-1.87068e-09
47	19341	12.91	-3.05143e-09
47	19495	13.01	-3.96536e-09
47	19645	13.11	-4.64411e-09
47	19795	13.21	-5.11751e-09
47	19945	13.31	-5.41416e-09
47	20095	13.41	-5.56053e-09
47	20245	13.51	-5.5806e-09
47	20395	13.61	-5.49729e-09
47	20545	13.71	-5.32996e-09
47	20695	13.81	-5.09726e-09
47	20845	13.91	-4.81499e-09
47	20999	14.01	-4.49702e-09
47	21149	14.11	-4.15543e-09
47	21299	14.21	-3.80052e-09
47	21449	14.31	-3.44169e-09
47	21599	14.41	-3.08535e-09
47	21749	14.51	-2.73772e-09
47	21899	14.61	-2.40341e-09
47	22049	14.71	-2.08633e-09
47	22199	14.81	-1.78844e-09
47	22349	14.91	-1.51221e-09
47	22503	15.01	-1.25837e-09
47	22653	15.11	-1.02744e-09
47	22803	15.21	-8.19789e-10
47	22953	15.31	-6.34515e-10
47	23103	15.41	-4.71267e-10
47	23253	15.51	-3.28981e-10
47	23403	15.61	-2.06235e-10
47	23553	15.71	-1.02318e-10
47	23703	15.81	-1.45661e-11
47	23853	15.91	5.73763e-11
47	24007	16.01	1.15463e-10
47	24157	16.11	1.61116e-10
47	24307	16.21	1.95577e-10
47	24457	16.31	2.20446e-10
47	24607	16.41	2.36788e-10
47	24757	16.51	2.46025e-10
47	24907	16.61	2.49223e-10
47	25057	16.71	2.47447e-10
47	25207	16.81	2.41407e-10
47	25357	16.91	2.3217e-10
47	25511	17.01	2.20446e-10
47	25661	17.11	2.06768e-10
47	25811	17.21	1.91847e-10
47	25961	17.31	1.75859e-10
47	26111	17.41	1.59872e-10
47	26261	17.51	1.43885e-10
47	26411	17.61	1.27898e-10
47	26561	17.71	1.12976e-10
47	26711	17.81	9.87654e-11
47	26861	17.91	8.49099e-11
47	27015	18.01	7.24754e-11
47	27165	18.11	6.07514e-11
47	27315	18.21	5.00933e-11
47	27465	18.31	4.05009e-11
47	27615	18.41	3.16192e-11
47	27765	18.51	2.43361e-11
47	27915	18.61	1.72307e-11
47	28065	18.71	1.1724e-11
47	28215	18.81	6.39488e-12
47	28365	18.91	2.4869e-12
47	28519	19.01	-1.06581e-12
47	28669	19.11	-4.08562e-12
47	28819	19.21	-5.86198e-12
47	28969	19.31	-7.63833e-12
47	29119	19.41	-9.41469e-12
47	29269	19.51	-1.01252e-11
47	29419	19.61	-1.01252e-11
47	29569	19.71	-1.01252e-11
47	29719	19.81	-1.01252e-11
47	29869	19.91	-1.01252e-11
47	30023	20.01	-1.01252e-11
47	30173	20.11	-1.01252e-11
47	30323	20.21	-1.01252e-11
47	30473	20.31	-1.01252e-11
47	30623	20.41	-9.41469e-12
47	30773	20.51	-8.52651e-12
47	30923	20.61	-7.63833e-12
47	31073	20.71	-6.92779e-12
47	31223	20.81	-6.21725e-12
47	31373	20.91	-5.68434e-12
47	31527	21.01	-5.15143e-12
47	31677	21.11	-4.61853e-12
47	31827	21.21	-4.26326e-12
47	31977	21.31	-3.73035e-12
47	32127	21.41	-3.37508e-12
47	32277	21.51	-3.01981e-12
47	32427	21.61	-2.84217e-12
47	32577	21.71	-2.4869e-12
47	32727	21.81	-2.30926e-12
47	32877	21.91	-2.13163e-12
47	33031	22.01	-1.95399e-12
47	33181	22.11	-1.77636e-12
47	33331	22.21	-1.59872e-12
47	33481	22.31	-1.42109e-12
47	33631	22.41	-1.24345e-12
47	33781	22.51	-1.06581e-12
47	33931	22.61	-1.06581e-12
47	34081	22.71	-8.88178e-13
47	34231	22.81	-8.88178e-13
47	34381	22.91	-7.10543e-13
47	34535	23.01	-7.10543e-13
47	34685	23.11	-5.32907e-13
47	34835	23.21	-5.32907e-13
47	34985	23.31	-5.32907e-13
47	35135	23.41	-5.32907e-13
47	35285	23.51	-3.55271e-13
47	35435	23.61	-3.55271e-13
47	35585	23.71	-3.55271e-13
47	35735	23.81	-3.55271e-13
47	35885	23.91	-3.55271e-13
47	36039	24.01	-1.77636e-13
47	36189	24.11	-1.77636e-13
47	36339	24.21	-1.77636e-13
47	36489	24.31	-1.77636e-13
47	36639	24.41	-1.77636e-13
47	36789	24.51	-1.77636e-13
47	36939	24.61	-1.77636e-13
47	37089	24.71	-1.77636e-13
47	37239	24.81	-1.77636e-13
47	37389	24.91	-1.77636e-13
47	37543	25.01	0
47	37693	25.11	0
47	37843	25.21	0
47	37993	25.31	0
47	38143	25.41	0
47	38293	25.51	0
47	38443	25.61	0
47	38593	25.71	0
47	38743	25.81	0
47	38893	25.91	0
47	39047	26.01	0
47	39197	26.11	0
47	39347	26.21	0
47	39497	26.31	0
47	39647	26.41	0
47	39797	26.51	0
47	39947	26.61	0
47	40097	26.71	0
47	40247	26.81	0
47	40397	26.91	0
47	40551	27.01	0
47	40701	27.11	0
47	40851	27.21	0
47	41001	27.31	0
47	41151	27.41	0
47	41301	27.51	0
47	41451	27.61	0
47	41601	27.71	0
47	41751	27.81	0
47	41901	27.91	0
47	42055	28.01	0
47	42205	28.11	0
47	42355	28.21	0
47	42505	28.31	0
47	42655	28.41	0
47	42805	28.51	0
47	42955	28.61	0
47	43105	28.71	0
47	43255	28.81	0
47	43405	28.91	0
47	43559	29.01	0
47	43709	29.11	0
47	43859	29.21	0
47	44009	29.31	0
47	44159	29.41	0
47	44309	29.51	0
47	44459	29.61	0
47	44609	29.71	0
47	44759	29.81	0
47	44909	29.91	0
47	45063	30.01	0
47	45213	30.11	0
47	45363	30.21	0
47	45513	30.31	0
47	45663	30.41	0
47	45813	30.51	0
47	45963	30.61	0
47	46113	30.71	0
47	46263	30.81	0
47	46413	30.91	0
47	46567	31.01	0
47	46717	31.11	0
47	46867	31.21	0
47	47017	31.31	0
47	47167	31.41	0
47	47317	31.51	0
47	47467	31.61	0
47	47617	31.71	0
47	47767	31.81	0
47	47917	31.91	0
47	48071	32.01	0
47	48221	32.11	0
47	48371	32.21	0
47	48521	32.31	0
47	48671	32.41	0
47	48821	32.51	0
47	48971	32.61	0
47	49121	32.71	0
47	49271	32.81	0
47	49421	32.91	0
47	49575	33.01	0
47	49725	33.11	0
47	49875	33.21	0
47	50025	33.31	0
47	50175	33.41	0
47	50325	33.51	0
47	50475	33.61	0
47	50625	33.71	0
47	50775	33.81	0
47	50925	33.91	0
47	51079	34.01	0
47	51229	34.11	0
47	51379	34.21	0
47	51529	34.31	0
47	51679	34.41	0
51	26	0.21	1.6
51	176	0.31	1.6
51	326	0.41	1.6
51	476	0.51	1.6
51	626	0.61	1.6
51	776	0.71	1.6
51	926	0.81	1.6
51	1076	0.91	1.6
51	1230	1.01	1.6
51	1381	1.11	1.6
51	1532	1.21	1.6
51	1683	1.31	1.6
51	2046	1.41	1.6
51	2196	1.51	1.6
51	2346	1.61	1.6
51	2496	1.71	1.6
51	2646	1.81	1.6
51	2796	1.91	1.6
51	2950	2.01	1.6
51	3100	2.11	1.6
51	3250	2.21	1.6
51	3400	2.31	1.6
51	3550	2.41	1.6
51	3700	2.51	1.6
51	3850	2.61	1.6
51	4000	2.71	1.6
51	4150	2.81	1.6
51	4300	2.91	1.6
51	4454	3.01	1.6
51	4604	3.11	1.6
51	4754	3.21	1.6
51	4904	3.31	1.6
51	5054	3.41	1.6
51	5204	3.51	1.6
51	5354	3.61	1.6
51	5504	3.71	1.6
51	5654	3.81	1.6
51	5804	3.91	1.6
51	5958	4.01	1.6
51	6108	4.11	1.6
51	6258	4.21	1.6
51	6408	4.31	1.6
51	6558	4.41	1.6
51	6708	4.51	1.6
51	6858	4.61	1.6
51	7008	4.71	1.6
51	7158	4.81	1.6
51	7308	4.91	1.6
51	7462	5.01	1.6
51	7612	5.11	1.6
51	7762	5.21	1.6
51	7912	5.31	1.6
51	8062	5.41	1.6
51	8212	5.51	1.6
51	8362	5.61	1.6
51	8512	5.71	1.6
51	8662	5.81	1.6
51	8812	5.91	1.6
51	8966	6.01	1.6
51	9116	6.11	1.6
51	9266	6.21	1.6
51	9416	6.31	1.6
51	9566	6.41	1.6
51	9716	6.51	1.6
51	9866	6.61	1.6
51	10016	6.71	1.6
51	10166	6.81	1.6
51	10316	6.91	1.6
51	10470	7.01	1.6
51	10620	7.11	1.6
51	10770	7.21	1.6
51	10920	7.31	1.6
51	11070	7.41	1.6
51	11220	7.51	1.6
51	11370	7.61	1.6
51	11520	7.71	1.6
51	11670	7.81	1.6
51	11820	7.91	1.6
51	11974	8.01	1.6
51	12124	8.11	1.6
51	12274	8.21	1.6
51	12424	8.31	1.6
51	12574	8.41	1.6
51	12724	8.51	1.6
51	12874	8.61	1.6
51	13024	8.71	1.6
51	13174	8.81	1.6
51	13324	8.91	1.6
51	13478	9.01	1.6
51	13628	9.11	1.6
51	13778	9.21	1.6
51	13928	9.31	1.6
51	14078	9.41	1.6
51	14228	9.51	1.6
51	14378	9.61	1.6
51	14528	9.71	1.6
51	14678	9.81	1.6
51	14828	9.91	1.6
51	14982	10.01	1.6
51	15132	10.11	1.6
51	15282	10.21	1.6
51	15432	10.31	1.6
51	15582	10.41	1.6
51	15732	10.51	1.6
51	15882	10.61	1.6
51	16032	10.71	1.6
51	16182	10.81	1.6
51	16332	10.91	1.6
51	16486	11.01	1.6
51	16636	11.11	1.6
51	16786	11.21	1.6
51	16936	11.31	1.6
51	17087	11.41	1.6
51	17237	11.51	1.6
51	17387	11.61	1.6
51	17537	11.71	1.6
51	17687	11.81	1.6
51	17837	11.91	1.6
51	17991	12.01	1.6
51	18141	12.11	1.6
51	18291	12.21	1.6
51	18441	12.31	1.6
51	18591	12.41	1.6
51	18741	12.51	1.6
51	18891	12.61	1.6
51	19041	12.71	1.6
51	19191	12.81	1.6
51	19341	12.91	1.6
51	19495	13.01	1.6
51	19645	13.11	1.6
51	19795	13.21	1.6
51	19945	13.31	1.6
51	20095	13.41	1.6
51	20245	13.51	1.6
51	20395	13.61	1.6
51	20545	13.71	1.6
51	20695	13.81	1.6
51	20845	13.91	1.6
51	20999	14.01	1.6
51	21149	14.11	1.6
51	21299	14.21	1.6
51	21449	14.31	1.6
51	21599	14.41	1.6
51	21749	14.51	1.6
51	21899	14.61	1.6
51	22049	14.71	1.6
51	22199	14.81	1.6
51	22349	14.91	1.6
51	22503	15.01	1.6
51	22653	15.11	1.6
51	22803	15.21	1.6
51	22953	15.31	1.6
51	23103	15.41	1.6
51	23253	15.51	1.6
51	23403	15.61	1.6
51	23553	15.71	1.6
51	23703	15.81	1.6
51	23853	15.91	1.6
51	24007	16.01	1.6
51	24157	16.11	1.6
51	24307	16.21	1.6
51	24457	16.31	1.6
51	24607	16.41	1.6
51	24757	16.51	1.6
51	24907	16.61	1.6
51	25057	16.71	1.6
51	25207	16.81	1.6
51	25357	16.91	1.6
51	25511	17.01	1.6
51	25661	17.11	1.6
51	25811	17.21	1.6
51	25961	17.31	1.6
51	26111	17.41	1.6
51	26261	17.51	1.6
51	26411	17.61	1.6
51	26561	17.71	1.6
51	26711	17.81	1.6
51	26861	17.91	1.6
51	27015	18.01	1.6
51	27165	18.11	1.6
51	27315	18.21	1.6
51	27465	18.31	1.6
51	27615	18.41	1.6
51	27765	18.51	1.6
51	27915	18.61	1.6
51	28065	18.71	1.6
51	28215	18.81	1.6
51	28365	18.91	1.6
51	28519	19.01	1.6
51	28669	19.11	1.6
51	28819	19.21	1.6
51	28969	19.31	1.6
51	29119	19.41	1.6
51	29269	19.51	1.6
51	29419	19.61	1.6
51	29569	19.71	1.6
51	29719	19.81	1.6
51	29869	19.91	1.6
51	30023	20.01	1.6
51	30173	20.11	1.6
51	30323	20.21	1.6
51	30473	20.31	1.6
51	30623	20.41	1.6
51	30773	20.51	1.6
51	30923	20.61	1.6
51	31073	20.71	1.6
51	31223	20.81	1.6
51	31373	20.91	1.6
51	31527	21.01	1.6
51	31677	21.11	1.6
51	31827	21.21	1.6
51	31977	21.31	1.6
51	32127	21.41	1.6
51	32277	21.51	1.6
51	32427	21.61	1.6
51	32577	21.71	1.6
51	32727	21.81	1.6
51	32877	21.91	1.6
51	33031	22.01	1.6
51	33181	22.11	1.6
51	33331	22.21	1.6
51	33481	22.31	1.6
51	33631	22.41	1.6
51	33781	22.51	1.6
51	33931	22.61	1.6
51	34081	22.71	1.6
51	34231	22.81	1.6
51	34381	22.91	1.6
51	34535	23.01	1.6
51	34685	23.11	1.6
51	34835	23.21	1.6
51	34985	23.31	1.6
51	35135	23.41	1.6
51	35285	23.51	1.6
51	35435	23.61	1.6
51	35585	23.71	1.6
51	35735	23.81	1.6
51	35885	23.91	1.6
51	36039	24.01	1.6
51	36189	24.11	1.6
51	36339	24.21	1.6
51	36489	24.31	1.6
51	36639	24.41	1.6
51	36789	24.51	1.6
51	36939	24.61	1.6
51	37089	24.71	1.6
51	37239	24.81	1.6
51	37389	24.91	1.6
51	37543	25.01	1.6
51	37693	25.11	1.6
51	37843	25.21	1.6
51	37993	25.31	1.6
51	38143	25.41	1.6
51	38293	25.51	1.6
51	38443	25.61	1.6
51	38593	25.71	1.6
51	38743	25.81	1.6
51	38893	25.91	1.6
51	39047	26.01	1.6
51	39197	26.11	1.6
51	39347	26.21	1.6
51	39497	26.31	1.6
51	39647	26.41	1.6
51	39797	26.51	1.6
51	39947	26.61	1.6
51	40097	26.71	1.6
51	40247	26.81	1.6
51	40397	26.91	1.6
51	40551	27.01	1.6
51	40701	27.11	1.6
51	40851	27.21	1.6
51	41001	27.31	1.6
51	41151	27.41	1.6
51	41301	27.51	1.6
51	41451	27.61	1.6
51	41601	27.71	1.6
51	41751	27.81	1.6
51	41901	27.91	1.6
51	42055	28.01	1.6
51	42205	28.11	1.6
51	42355	28.21	1.6
51	42505	28.31	1.6
51	42655	28.41	1.6
51	42805	28.51	1.6
51	42955	28.61	1.6
51	43105	28.71	1.6
51	43255	28.81	1.6
51	43405	28.91	1.6
51	43559	29.01	1.6
51	43709	29.11	1.6
51	43859	29.21	1.6
51	44009	29.31	1.6
51	44159	29.41	1.6
51	44309	29.51	1.6
51	44459	29.61	1.6
51	44609	29.71	1.6
51	44759	29.81	1.6
51	44909	29.91	1.6
51	45063	30.01	1.6
51	45213	30.11	1.6
51	45363	30.21	1.6
51	45513	30.31	1.6
51	45663	30.41	1.6
51	45813	30.51	1.6
51	45963	30.61	1.6
51	46113	30.71	1.6
51	46263	30.81	1.6
51	46413	30.91	1.6
51	46567	31.01	1.6
51	46717	31.11	1.6
51	46867	31.21	1.6
51	47017	31.31	1.6
51	47167	31.41	1.6
51	47317	31.51	1.6
51	47467	31.61	1.6
51	47617	31.71	1.6
51	47767	31.81	1.6
51	47917	31.91	1.6
51	48071	32.01	1.6
51	48221	32.11	1.6
51	48371	32.21	1.6
51	48521	32.31	1.6
51	48671	32.41	1.6
51	48821	32.51	1.6
51	48971	32.61	1.6
51	49121	32.71	1.6
51	49271	32.81	1.6
51	49421	32.91	1.6
51	49575	33.01	1.6
51	49725	33.11	1.6
51	49875	33.21	1.6
51	50025	33.31	1.6
51	50175	33.41	1.6
51	50325	33.51	1.6
51	50475	33.61	1.6
51	50625	33.71	1.6
51	50775	33.81	1.6
51	50925	33.91	1.6
51	51079	34.01	1.6
51	51229	34.11	1.6
51	51379	34.21	1.6
51	51529	34.31	1.6
51	51679	34.41	1.6
50	26	0.21	522.625
50	176	0.31	521.097
50	326	0.41	519.569
50	476	0.51	518.041
50	626	0.61	516.513
50	776	0.71	514.985
50	926	0.81	513.457
50	1076	0.91	511.929
50	1230	1.01	510.401
50	1381	1.11	508.873
50	1532	1.21	507.345
50	1683	1.31	505.817
50	2046	1.41	504.29
50	2196	1.51	502.762
50	2346	1.61	501.234
50	2496	1.71	499.706
50	2646	1.81	498.178
50	2796	1.91	496.65
50	2950	2.01	495.123
50	3100	2.11	493.595
50	3250	2.21	492.067
50	3400	2.31	490.539
50	3550	2.41	489.011
50	3700	2.51	487.484
50	3850	2.61	485.956
50	4000	2.71	484.428
50	4150	2.81	482.9
50	4300	2.91	481.373
50	4454	3.01	479.845
50	4604	3.11	478.317
50	4754	3.21	476.789
50	4904	3.31	475.262
50	5054	3.41	473.734
50	5204	3.51	472.206
50	5354	3.61	470.678
50	5504	3.71	469.15
50	5654	3.81	467.623
50	5804	3.91	466.095
50	5958	4.01	464.567
50	6108	4.11	463.039
50	6258	4.21	461.512
50	6408	4.31	459.984
50	6558	4.41	458.456
50	6708	4.51	456.928
50	6858	4.61	455.4
50	7008	4.71	453.873
50	7158	4.81	452.345
50	7308	4.91	450.817
50	7462	5.01	449.289
50	7612	5.11	447.762
50	7762	5.21	446.234
50	7912	5.31	444.706
50	8062	5.41	443.178
50	8212	5.51	441.65
50	8362	5.61	440.123
50	8512	5.71	438.595
50	8662	5.81	437.067
50	8812	5.91	435.539
50	8966	6.01	434.012
50	9116	6.11	432.484
50	9266	6.21	430.956
50	9416	6.31	429.428
50	9566	6.41	427.9
50	9716	6.51	426.373
50	9866	6.61	424.845
50	10016	6.71	423.317
50	10166	6.81	421.789
50	10316	6.91	420.262
50	10470	7.01	418.734
50	10620	7.11	417.206
50	10770	7.21	415.678
50	10920	7.31	414.15
50	11070	7.41	412.623
50	11220	7.51	411.095
50	11370	7.61	409.567
50	11520	7.71	408.039
50	11670	7.81	406.512
50	11820	7.91	404.984
50	11974	8.01	403.456
50	12124	8.11	401.928
50	12274	8.21	400.4
50	12424	8.31	398.873
50	12574	8.41	397.345
50	12724	8.51	395.817
50	12874	8.61	394.289
50	13024	8.71	392.762
50	13174	8.81	391.234
50	13324	8.91	389.706
50	13478	9.01	388.178
50	13628	9.11	386.65
50	13778	9.21	385.123
50	13928	9.31	383.595
50	14078	9.41	382.067
50	14228	9.51	380.539
50	14378	9.61	379.011
50	14528	9.71	377.484
50	14678	9.81	375.956
50	14828	9.91	374.428
50	14982	10.01	372.9
50	15132	10.11	371.373
50	15282	10.21	369.845
50	15432	10.31	368.317
50	15582	10.41	366.789
50	15732	10.51	365.261
50	15882	10.61	363.734
50	16032	10.71	362.206
50	16182	10.81	360.678
50	16332	10.91	359.15
50	16486	11.01	357.623
50	16636	11.11	356.095
50	16786	11.21	354.567
50	16936	11.31	353.039
50	17087	11.41	351.511
50	17237	11.51	349.984
50	17387	11.61	348.456
50	17537	11.71	346.928
50	17687	11.81	345.4
50	17837	11.91	343.873
50	17991	12.01	342.345
50	18141	12.11	340.817
50	18291	12.21	339.289
50	18441	12.31	337.761
50	18591	12.41	336.234
50	18741	12.51	334.706
50	18891	12.61	333.178
50	19041	12.71	331.65
50	19191	12.81	330.123
50	19341	12.91	328.595
50	19495	13.01	327.067
50	19645	13.11	325.539
50	19795	13.21	324.011
50	19945	13.31	322.484
50	20095	13.41	320.956
50	20245	13.51	319.428
50	20395	13.61	317.9
50	20545	13.71	316.373
50	20695	13.81	314.845
50	20845	13.91	313.317
50	20999	14.01	311.789
50	21149	14.11	310.261
50	21299	14.21	308.734
50	21449	14.31	307.206
50	21599	14.41	305.678
50	21749	14.51	304.15
50	21899	14.61	302.622
50	22049	14.71	301.095
50	22199	14.81	299.567
50	22349	14.91	298.039
50	22503	15.01	296.511
50	22653	15.11	294.984
50	22803	15.21	293.456
50	22953	15.31	291.928
50	23103	15.41	290.4
50	23253	15.51	288.872
50	23403	15.61	287.345
50	23553	15.71	285.817
50	23703	15.81	284.289
50	23853	15.91	282.761
50	24007	16.01	281.234
50	24157	16.11	279.706
50	24307	16.21	278.178
50	24457	16.31	276.65
50	24607	16.41	275.122
50	24757	16.51	273.595
50	24907	16.61	272.067
50	25057	16.71	270.539
50	25207	16.81	269.011
50	25357	16.91	267.484
50	25511	17.01	265.956
50	25661	17.11	264.428
50	25811	17.21	262.9
50	25961	17.31	261.372
50	26111	17.41	259.845
50	26261	17.51	258.317
50	26411	17.61	256.789
50	26561	17.71	255.261
50	26711	17.81	253.734
50	26861	17.91	252.206
50	27015	18.01	250.678
50	27165	18.11	249.15
50	27315	18.21	247.622
50	27465	18.31	246.095
50	27615	18.41	244.567
50	27765	18.51	243.039
50	27915	18.61	241.511
50	28065	18.71	239.984
50	28215	18.81	238.456
50	28365	18.91	236.928
50	28519	19.01	235.4
50	28669	19.11	233.872
50	28819	19.21	232.345
50	28969	19.31	230.817
50	29119	19.41	229.289
50	29269	19.51	227.761
50	29419	19.61	226.233
50	29569	19.71	224.706
50	29719	19.81	223.178
50	29869	19.91	221.65
50	30023	20.01	220.122
50	30173	20.11	218.595
50	30323	20.21	217.067
50	30473	20.31	215.539
50	30623	20.41	214.011
50	30773	20.51	212.483
50	30923	20.61	210.956
50	31073	20.71	209.428
50	31223	20.81	207.9
50	31373	20.91	206.372
50	31527	21.01	204.845
50	31677	21.11	203.317
50	31827	21.21	201.789
50	31977	21.31	200.261
50	32127	21.41	198.733
50	32277	21.51	197.206
50	32427	21.61	195.678
50	32577	21.71	194.15
50	32727	21.81	192.622
50	32877	21.91	191.095
50	33031	22.01	189.567
50	33181	22.11	188.039
50	33331	22.21	186.511
50	33481	22.31	184.983
50	33631	22.41	183.456
50	33781	22.51	181.928
50	33931	22.61	180.4
50	34081	22.71	178.872
50	34231	22.81	177.345
50	34381	22.91	175.817
50	34535	23.01	174.289
50	34685	23.11	172.761
50	34835	23.21	171.233
50	34985	23.31	169.706
50	35135	23.41	168.178
50	35285	23.51	166.65
50	35435	23.61	165.122
50	35585	23.71	163.595
50	35735	23.81	162.067
50	35885	23.91	160.539
50	36039	24.01	159.011
50	36189	24.11	157.483
50	36339	24.21	155.956
50	36489	24.31	154.428
50	36639	24.41	152.9
50	36789	24.51	151.372
50	36939	24.61	149.844
50	37089	24.71	148.317
50	37239	24.81	146.789
50	37389	24.91	145.261
50	37543	25.01	143.733
50	37693	25.11	142.206
50	37843	25.21	140.678
50	37993	25.31	139.15
50	38143	25.41	137.622
50	38293	25.51	136.094
50	38443	25.61	134.567
50	38593	25.71	133.039
50	38743	25.81	131.511
50	38893	25.91	129.983
50	39047	26.01	128.456
50	39197	26.11	126.928
50	39347	26.21	125.4
50	39497	26.31	123.872
50	39647	26.41	122.344
50	39797	26.51	120.817
50	39947	26.61	119.289
50	40097	26.71	117.761
50	40247	26.81	116.233
50	40397	26.91	114.706
50	40551	27.01	113.178
50	40701	27.11	111.65
50	40851	27.21	110.122
50	41001	27.31	108.594
50	41151	27.41	107.067
50	41301	27.51	105.539
50	41451	27.61	104.011
50	41601	27.71	102.483
50	41751	27.81	100.956
50	41901	27.91	99.4277
50	42055	28.01	97.9
50	42205	28.11	96.3722
50	42355	28.21	94.8444
50	42505	28.31	93.3166
50	42655	28.41	91.7888
50	42805	28.51	90.2611
50	42955	28.61	88.7333
50	43105	28.71	87.2055
50	43255	28.81	85.6777
50	43405	28.91	84.1499
50	43559	29.01	82.6222
50	43709	29.11	81.0944
50	43859	29.21	79.5666
50	44009	29.31	78.0388
50	44159	29.41	76.511
50	44309	29.51	74.9833
50	44459	29.61	73.4555
50	44609	29.71	71.9277
50	44759	29.81	70.3999
50	44909	29.91	68.8721
50	45063	30.01	67.3444
50	45213	30.11	65.8166
50	45363	30.21	64.2888
50	45513	30.31	62.761
50	45663	30.41	61.2332
50	45813	30.51	59.7055
50	45963	30.61	58.1777
50	46113	30.71	56.6499
50	46263	30.81	55.1221
50	46413	30.91	53.5943
50	46567	31.01	52.0666
50	46717	31.11	50.5388
50	46867	31.21	49.011
50	47017	31.31	47.4832
50	47167	31.41	45.9554
50	47317	31.51	44.4277
50	47467	31.61	42.8999
50	47617	31.71	41.3721
50	47767	31.81	39.8443
50	47917	31.91	38.3165
50	48071	32.01	36.7888
50	48221	32.11	35.261
50	48371	32.21	33.7332
50	48521	32.31	32.2054
50	48671	32.41	30.6776
50	48821	32.51	29.1499
50	48971	32.61	27.6221
50	49121	32.71	26.0943
50	49271	32.81	24.5665
50	49421	32.91	23.0387
50	49575	33.01	21.511
50	49725	33.11	19.9832
50	49875	33.21	18.4554
50	50025	33.31	16.9276
50	50175	33.41	15.3998
50	50325	33.51	13.8721
50	50475	33.61	12.3443
50	50625	33.71	10.8165
50	50775	33.81	9.28873
50	50925	33.91	7.76095
50	51079	34.01	6.23317
50	51229	34.11	4.70539
50	51379	34.21	3.17761
50	51529	34.31	1.64983
50	51679	34.41	0.122049
49	26	0.21	15.28
49	176	0.31	15.2799
49	326	0.41	15.2798
49	476	0.51	15.2797
49	626	0.61	15.2796
49	776	0.71	15.2795
49	926	0.81	15.2794
49	1076	0.91	15.2792
49	1230	1.01	15.2791
49	1381	1.11	15.2789
49	1532	1.21	15.2788
49	1683	1.31	15.2787
49	2046	1.41	15.2785
49	2196	1.51	15.2784
49	2346	1.61	15.2783
49	2496	1.71	15.2782
49	2646	1.81	15.2782
49	2796	1.91	15.2781
49	2950	2.01	15.278
49	3100	2.11	15.2779
49	3250	2.21	15.2779
49	3400	2.31	15.2779
49	3550	2.41	15.2778
49	3700	2.51	15.2778
49	3850	2.61	15.2778
49	4000	2.71	15.2777
49	4150	2.81	15.2777
49	4300	2.91	15.2777
49	4454	3.01	15.2777
49	4604	3.11	15.2777
49	4754	3.21	15.2777
49	4904	3.31	15.2777
49	5054	3.41	15.2777
49	5204	3.51	15.2777
49	5354	3.61	15.2777
49	5504	3.71	15.2777
49	5654	3.81	15.2777
49	5804	3.91	15.2777
49	5958	4.01	15.2777
49	6108	4.11	15.2777
49	6258	4.21	15.2777
49	6408	4.31	15.2778
49	6558	4.41	15.2778
49	6708	4.51	15.2778
49	6858	4.61	15.2778
49	7008	4.71	15.2778
49	7158	4.81	15.2778
49	7308	4.91	15.2778
49	7462	5.01	15.2778
49	7612	5.11	15.2778
49	7762	5.21	15.2778
49	7912	5.31	15.2778
49	8062	5.41	15.2778
49	8212	5.51	15.2778
49	8362	5.61	15.2778
49	8512	5.71	15.2778
49	8662	5.81	15.2778
49	8812	5.91	15.2778
49	8966	6.01	15.2778
49	9116	6.11	15.2778
49	9266	6.21	15.2778
49	9416	6.31	15.2778
49	9566	6.41	15.2778
49	9716	6.51	15.2778
49	9866	6.61	15.2778
49	10016	6.71	15.2778
49	10166	6.81	15.2778
49	10316	6.91	15.2778
49	10470	7.01	15.2778
49	10620	7.11	15.2778
49	10770	7.21	15.2778
49	10920	7.31	15.2778
49	11070	7.41	15.2778
49	11220	7.51	15.2778
49	11370	7.61	15.2778
49	11520	7.71	15.2778
49	11670	7.81	15.2778
49	11820	7.91	15.2778
49	11974	8.01	15.2778
49	12124	8.11	15.2778
49	12274	8.21	15.2778
49	12424	8.31	15.2778
49	12574	8.41	15.2778
49	12724	8.51	15.2778
49	12874	8.61	15.2778
49	13024	8.71	15.2778
49	13174	8.81	15.2778
49	13324	8.91	15.2778
49	13478	9.01	15.2778
49	13628	9.11	15.2778
49	13778	9.21	15.2778
49	13928	9.31	15.2778
49	14078	9.41	15.2778
49	14228	9.51	15.2778
49	14378	9.61	15.2778
49	14528	9.71	15.2778
49	14678	9.81	15.2778
49	14828	9.91	15.2778
49	14982	10.01	15.2778
49	15132	10.11	15.2778
49	15282	10.21	15.2778
49	15432	10.31	15.2778
49	15582	10.41	15.2778
49	15732	10.51	15.2778
49	15882	10.61	15.2778
49	16032	10.71	15.2778
49	16182	10.81	15.2778
49	16332	10.91	15.2778
49	16486	11.01	15.2778
49	16636	11.11	15.2778
49	16786	11.21	15.2778
49	16936	11.31	15.2778
49	17087	11.41	15.2778
49	17237	11.51	15.2778
49	17387	11.61	15.2778
49	17537	11.71	15.2778
49	17687	11.81	15.2778
49	17837	11.91	15.2778
49	17991	12.01	15.2778
49	18141	12.11	15.2778
49	18291	12.21	15.2778
49	18441	12.31	15.2778
49	18591	12.41	15.2778
49	18741	12.51	15.2778
49	18891	12.61	15.2778
49	19041	12.71	15.2778
49	19191	12.81	15.2778
49	19341	12.91	15.2778
49	19495	13.01	15.2778
49	19645	13.11	15.2778
49	19795	13.21	15.2778
49	19945	13.31	15.2778
49	20095	13.41	15.2778
49	20245	13.51	15.2778
49	20395	13.61	15.2778
49	20545	13.71	15.2778
49	20695	13.81	15.2778
49	20845	13.91	15.2778
49	20999	14.01	15.2778
49	21149	14.11	15.2778
49	21299	14.21	15.2778
49	21449	14.31	15.2778
49	21599	14.41	15.2778
49	21749	14.51	15.2778
49	21899	14.61	15.2778
49	22049	14.71	15.2778
49	22199	14.81	15.2778
49	22349	14.91	15.2778
49	22503	15.01	15.2778
49	22653	15.11	15.2778
49	22803	15.21	15.2778
49	22953	15.31	15.2778
49	23103	15.41	15.2778
49	23253	15.51	15.2778
49	23403	15.61	15.2778
49	23553	15.71	15.2778
49	23703	15.81	15.2778
49	23853	15.91	15.2778
49	24007	16.01	15.2778
49	24157	16.11	15.2778
49	24307	16.21	15.2778
49	24457	16.31	15.2778
49	24607	16.41	15.2778
49	24757	16.51	15.2778
49	24907	16.61	15.2778
49	25057	16.71	15.2778
49	25207	16.81	15.2778
49	25357	16.91	15.2778
49	25511	17.01	15.2778
49	25661	17.11	15.2778
49	25811	17.21	15.2778
49	25961	17.31	15.2778
49	26111	17.41	15.2778
49	26261	17.51	15.2778
49	26411	17.61	15.2778
49	26561	17.71	15.2778
49	26711	17.81	15.2778
49	26861	17.91	15.2778
49	27015	18.01	15.2778
49	27165	18.11	15.2778
49	27315	18.21	15.2778
49	27465	18.31	15.2778
49	27615	18.41	15.2778
49	27765	18.51	15.2778
49	27915	18.61	15.2778
49	28065	18.71	15.2778
49	28215	18.81	15.2778
49	28365	18.91	15.2778
49	28519	19.01	15.2778
49	28669	19.11	15.2778
49	28819	19.21	15.2778
49	28969	19.31	15.2778
49	29119	19.41	15.2778
49	29269	19.51	15.2778
49	29419	19.61	15.2778
49	29569	19.71	15.2778
49	29719	19.81	15.2778
49	29869	19.91	15.2778
49	30023	20.01	15.2778
49	30173	20.11	15.2778
49	30323	20.21	15.2778
49	30473	20.31	15.2778
49	30623	20.41	15.2778
49	30773	20.51	15.2778
49	30923	20.61	15.2778
49	31073	20.71	15.2778
49	31223	20.81	15.2778
49	31373	20.91	15.2778
49	31527	21.01	15.2778
49	31677	21.11	15.2778
49	31827	21.21	15.2778
49	31977	21.31	15.2778
49	32127	21.41	15.2778
49	32277	21.51	15.2778
49	32427	21.61	15.2778
49	32577	21.71	15.2778
49	32727	21.81	15.2778
49	32877	21.91	15.2778
49	33031	22.01	15.2778
49	33181	22.11	15.2778
49	33331	22.21	15.2778
49	33481	22.31	15.2778
49	33631	22.41	15.2778
49	33781	22.51	15.2778
49	33931	22.61	15.2778
49	34081	22.71	15.2778
49	34231	22.81	15.2778
49	34381	22.91	15.2778
49	34535	23.01	15.2778
49	34685	23.11	15.2778
49	34835	23.21	15.2778
49	34985	23.31	15.2778
49	35135	23.41	15.2778
49	35285	23.51	15.2778
49	35435	23.61	15.2778
49	35585	23.71	15.2778
49	35735	23.81	15.2778
49	35885	23.91	15.2778
49	36039	24.01	15.2778
49	36189	24.11	15.2778
49	36339	24.21	15.2778
49	36489	24.31	15.2778
49	36639	24.41	15.2778
49	36789	24.51	15.2778
49	36939	24.61	15.2778
49	37089	24.71	15.2778
49	37239	24.81	15.2778
49	37389	24.91	15.2778
49	37543	25.01	15.2778
49	37693	25.11	15.2778
49	37843	25.21	15.2778
49	37993	25.31	15.2778
49	38143	25.41	15.2778
49	38293	25.51	15.2778
49	38443	25.61	15.2778
49	38593	25.71	15.2778
49	38743	25.81	15.2778
49	38893	25.91	15.2778
49	39047	26.01	15.2778
49	39197	26.11	15.2778
49	39347	26.21	15.2778
49	39497	26.31	15.2778
49	39647	26.41	15.2778
49	39797	26.51	15.2778
49	39947	26.61	15.2778
49	40097	26.71	15.2778
49	40247	26.81	15.2778
49	40397	26.91	15.2778
49	40551	27.01	15.2778
49	40701	27.11	15.2778
49	40851	27.21	15.2778
49	41001	27.31	15.2778
49	41151	27.41	15.2778
49	41301	27.51	15.2778
49	41451	27.61	15.2778
49	41601	27.71	15.2778
49	41751	27.81	15.2778
49	41901	27.91	15.2778
49	42055	28.01	15.2778
49	42205	28.11	15.2778
49	42355	28.21	15.2778
49	42505	28.31	15.2778
49	42655	28.41	15.2778
49	42805	28.51	15.2778
49	42955	28.61	15.2778
49	43105	28.71	15.2778
49	43255	28.81	15.2778
49	43405	28.91	15.2778
49	43559	29.01	15.2778
49	43709	29.11	15.2778
49	43859	29.21	15.2778
49	44009	29.31	15.2778
49	44159	29.41	15.2778
49	44309	29.51	15.2778
49	44459	29.61	15.2778
49	44609	29.71	15.2778
49	44759	29.81	15.2778
49	44909	29.91	15.2778
49	45063	30.01	15.2778
49	45213	30.11	15.2778
49	45363	30.21	15.2778
49	45513	30.31	15.2778
49	45663	30.41	15.2778
49	45813	30.51	15.2778
49	45963	30.61	15.2778
49	46113	30.71	15.2778
49	46263	30.81	15.2778
49	46413	30.91	15.2778
49	46567	31.01	15.2778
49	46717	31.11	15.2778
49	46867	31.21	15.2778
49	47017	31.31	15.2778
49	47167	31.41	15.2778
49	47317	31.51	15.2778
49	47467	31.61	15.2778
49	47617	31.71	15.2778
49	47767	31.81	15.2778
49	47917	31.91	15.2778
49	48071	32.01	15.2778
49	48221	32.11	15.2778
49	48371	32.21	15.2778
49	48521	32.31	15.2778
49	48671	32.41	15.2778
49	48821	32.51	15.2778
49	48971	32.61	15.2778
49	49121	32.71	15.2778
49	49271	32.81	15.2778
49	49421	32.91	15.2778
49	49575	33.01	15.2778
49	49725	33.11	15.2778
49	49875	33.21	15.2778
49	50025	33.31	15.2778
49	50175	33.41	15.2778
49	50325	33.51	15.2778
49	50475	33.61	15.2778
49	50625	33.71	15.2778
49	50775	33.81	15.2778
49	50925	33.91	15.2778
49	51079	34.01	15.2778
49	51229	34.11	15.2778
49	51379	34.21	15.2778
49	51529	34.31	15.2778
49	51679	34.41	15.2778
45	26	0.21	0
45	176	0.31	0
45	326	0.41	0
45	476	0.51	0
45	626	0.61	0
45	776	0.71	0
45	926	0.81	0
45	1076	0.91	0
45	1230	1.01	0
45	1381	1.11	0
45	1532	1.21	0
45	1683	1.31	0
45	2046	1.41	7.24323
45	2196	1.51	6.87278
45	2346	1.61	6.59583
45	2496	1.71	6.3956
45	2646	1.81	6.2583
45	2796	1.91	6.17262
45	2950	2.01	6.12928
45	3100	2.11	6.12068
45	3250	2.21	6.14058
45	3400	2.31	6.18385
45	3550	2.41	6.24629
45	3700	2.51	6.32447
45	3850	2.61	6.41555
45	4000	2.71	6.51721
45	4150	2.81	6.62755
45	4300	2.91	6.74502
45	4454	3.01	6.86833
45	4604	3.11	6.99644
45	4754	3.21	7.12848
45	4904	3.31	7.26374
45	5054	3.41	7.40165
45	5204	3.51	7.54172
45	5354	3.61	7.68358
45	5504	3.71	7.8269
45	5654	3.81	7.97142
45	5804	3.91	8.11692
45	5958	4.01	8.26323
45	6108	4.11	8.4102
45	6258	4.21	8.55772
45	6408	4.31	8.70568
45	6558	4.41	8.854
45	6708	4.51	9.00263
45	6858	4.61	9.1515
45	7008	4.71	9.30057
45	7158	4.81	9.44981
45	7308	4.91	9.59919
45	7462	5.01	9.74868
45	7612	5.11	9.89826
45	7762	5.21	10.0479
45	7912	5.31	10.1976
45	8062	5.41	10.3474
45	8212	5.51	10.4972
45	8362	5.61	10.647
45	8512	5.71	10.7969
45	8662	5.81	10.9468
45	8812	5.91	11.0966
45	8966	6.01	11.2446
45	9116	6.11	11.3886
45	9266	6.21	11.5266
45	9416	6.31	11.6573
45	9566	6.41	11.7796
45	9716	6.51	11.8929
45	9866	6.61	11.9967
45	10016	6.71	12.0909
45	10166	6.81	12.1755
45	10316	6.91	12.2507
45	10470	7.01	12.3169
45	10620	7.11	12.3745
45	10770	7.21	12.424
45	10920	7.31	12.4659
45	11070	7.41	12.5009
45	11220	7.51	12.5297
45	11370	7.61	12.5527
45	11520	7.71	12.5706
45	11670	7.81	12.5841
45	11820	7.91	12.5936
45	11974	8.01	12.5998
45	12124	8.11	12.603
45	12274	8.21	12.6038
45	12424	8.31	12.6026
45	12574	8.41	12.5998
45	12724	8.51	12.5957
45	12874	8.61	12.5906
45	13024	8.71	12.5848
45	13174	8.81	12.5786
45	13324	8.91	12.572
45	13478	9.01	12.5653
45	13628	9.11	12.5587
45	13778	9.21	12.5522
45	13928	9.31	12.5459
45	14078	9.41	12.5399
45	14228	9.51	12.5343
45	14378	9.61	12.5291
45	14528	9.71	12.5243
45	14678	9.81	12.5199
45	14828	9.91	12.516
45	14982	10.01	12.5125
45	15132	10.11	12.5093
45	15282	10.21	12.5066
45	15432	10.31	12.5043
45	15582	10.41	12.5023
45	15732	10.51	12.5006
45	15882	10.61	12.4992
45	16032	10.71	12.4981
45	16182	10.81	12.4972
45	16332	10.91	12.4965
45	16486	11.01	12.496
45	16636	11.11	12.4957
45	16786	11.21	12.4955
45	16936	11.31	12.4954
45	17087	11.41	0
45	17237	11.51	0
45	17387	11.61	0
45	17537	11.71	0
45	17687	11.81	0
45	17837	11.91	0
45	17991	12.01	0
45	18141	12.11	0
45	18291	12.21	0
45	18441	12.31	0
45	18591	12.41	0
45	18741	12.51	0
45	18891	12.61	0
45	19041	12.71	0
45	19191	12.81	0
45	19341	12.91	0
45	19495	13.01	0
45	19645	13.11	0
45	19795	13.21	0
45	19945	13.31	0
45	20095	13.41	0
45	20245	13.51	0
45	20395	13.61	0
45	20545	13.71	0
45	20695	13.81	0
45	20845	13.91	0
45	20999	14.01	0
45	21149	14.11	0
45	21299	14.21	0
45	21449	14.31	0
45	21599	14.41	0
45	21749	14.51	0
45	21899	14.61	0
45	22049	14.71	0
45	22199	14.81	0
45	22349	14.91	0
45	22503	15.01	0
45	22653	15.11	0
45	22803	15.21	0
45	22953	15.31	0
45	23103	15.41	0
45	23253	15.51	0
45	23403	15.61	0
45	23553	15.71	0
45	23703	15.81	0
45	23853	15.91	0
45	24007	16.01	0
45	24157	16.11	0
45	24307	16.21	0
45	24457	16.31	0
45	24607	16.41	0
45	24757	16.51	0
45	24907	16.61	0
45	25057	16.71	0
45	25207	16.81	0
45	25357	16.91	0
45	25511	17.01	0
45	25661	17.11	0
45	25811	17.21	0
45	25961	17.31	0
45	26111	17.41	0
45	26261	17.51	0
45	26411	17.61	0
45	26561	17.71	0
45	26711	17.81	0
45	26861	17.91	0
45	27015	18.01	0
45	27165	18.11	0
45	27315	18.21	0
45	27465	18.31	0
45	27615	18.41	0
45	27765	18.51	0
45	27915	18.61	0
45	28065	18.71	0
45	28215	18.81	0
45	28365	18.91	0
45	28519	19.01	0
45	28669	19.11	0
45	28819	19.21	0
45	28969	19.31	0
45	29119	19.41	0
45	29269	19.51	0
45	29419	19.61	0
45	29569	19.71	0
45	29719	19.81	0
45	29869	19.91	0
45	30023	20.01	0
45	30173	20.11	0
45	30323	20.21	0
45	30473	20.31	0
45	30623	20.41	0
45	30773	20.51	0
45	30923	20.61	0
45	31073	20.71	0
45	31223	20.81	0
45	31373	20.91	0
45	31527	21.01	0
45	31677	21.11	0
45	31827	21.21	0
45	31977	21.31	0
45	32127	21.41	0
45	32277	21.51	0
45	32427	21.61	0
45	32577	21.71	0
45	32727	21.81	0
45	32877	21.91	0
45	33031	22.01	0
45	33181	22.11	0
45	33331	22.21	0
45	33481	22.31	0
45	33631	22.41	0
45	33781	22.51	0
45	33931	22.61	0
45	34081	22.71	0
45	34231	22.81	0
45	34381	22.91	0
45	34535	23.01	0
45	34685	23.11	0
45	34835	23.21	0
45	34985	23.31	0
45	35135	23.41	0
45	35285	23.51	0
45	35435	23.61	0
45	35585	23.71	0
45	35735	23.81	0
45	35885	23.91	0
45	36039	24.01	0
45	36189	24.11	0
45	36339	24.21	0
45	36489	24.31	0
45	36639	24.41	0
45	36789	24.51	0
45	36939	24.61	0
45	37089	24.71	0
45	37239	24.81	0
45	37389	24.91	0
45	37543	25.01	0
45	37693	25.11	0
45	37843	25.21	0
45	37993	25.31	0
45	38143	25.41	0
45	38293	25.51	0
45	38443	25.61	0
45	38593	25.71	0
45	38743	25.81	0
45	38893	25.91	0
45	39047	26.01	0
45	39197	26.11	0
45	39347	26.21	0
45	39497	26.31	0
45	39647	26.41	0
45	39797	26.51	0
45	39947	26.61	0
45	40097	26.71	0
45	40247	26.81	0
45	40397	26.91	0
45	40551	27.01	0
45	40701	27.11	0
45	40851	27.21	0
45	41001	27.31	0
45	41151	27.41	0
45	41301	27.51	0
45	41451	27.61	0
45	41601	27.71	0
45	41751	27.81	0
45	41901	27.91	0
45	42055	28.01	0
45	42205	28.11	0
45	42355	28.21	0
45	42505	28.31	0
45	42655	28.41	0
45	42805	28.51	0
45	42955	28.61	0
45	43105	28.71	0
45	43255	28.81	0
45	43405	28.91	0
45	43559	29.01	0
45	43709	29.11	0
45	43859	29.21	0
45	44009	29.31	0
45	44159	29.41	0
45	44309	29.51	0
45	44459	29.61	0
45	44609	29.71	0
45	44759	29.81	0
45	44909	29.91	0
45	45063	30.01	0
45	45213	30.11	0
45	45363	30.21	0
45	45513	30.31	0
45	45663	30.41	0
45	45813	30.51	0
45	45963	30.61	0
45	46113	30.71	0
45	46263	30.81	0
45	46413	30.91	0
45	46567	31.01	0
45	46717	31.11	0
45	46867	31.21	0
45	47017	31.31	0
45	47167	31.41	0
45	47317	31.51	0
45	47467	31.61	0
45	47617	31.71	0
45	47767	31.81	0
45	47917	31.91	0
45	48071	32.01	0
45	48221	32.11	0
45	48371	32.21	0
45	48521	32.31	0
45	48671	32.41	0
45	48821	32.51	0
45	48971	32.61	0
45	49121	32.71	0
45	49271	32.81	0
45	49421	32.91	0
45	49575	33.01	0
45	49725	33.11	0
45	49875	33.21	0
45	50025	33.31	0
45	50175	33.41	0
45	50325	33.51	0
45	50475	33.61	0
45	50625	33.71	0
45	50775	33.81	0
45	50925	33.91	0
45	51079	34.01	0
45	51229	34.11	0
45	51379	34.21	0
45	51529	34.31	0
45	51679	34.41	0
44	26	0.21	-1
44	176	0.31	-1
44	326	0.41	-1
44	476	0.51	-1
44	626	0.61	-1
44	776	0.71	-1
44	926	0.81	-1
44	1076	0.91	-1
44	1230	1.01	-1
44	1381	1.11	-1
44	1532	1.21	-1
44	1683	1.31	-1
44	2046	1.41	425.302
44	2196	1.51	421.541
44	2346	1.61	417.813
44	2496	1.71	414.108
44	2646	1.81	410.42
44	2796	1.91	406.743
44	2950	2.01	403.073
44	3100	2.11	399.405
44	3250	2.21	395.737
44	3400	2.31	392.065
44	3550	2.41	388.388
44	3700	2.51	384.704
44	3850	2.61	381.012
44	4000	2.71	377.309
44	4150	2.81	373.597
44	4300	2.91	369.873
44	4454	3.01	366.136
44	4604	3.11	362.388
44	4754	3.21	358.626
44	4904	3.31	354.851
44	5054	3.41	351.062
44	5204	3.51	347.259
44	5354	3.61	343.443
44	5504	3.71	339.611
44	5654	3.81	335.766
44	5804	3.91	331.906
44	5958	4.01	328.032
44	6108	4.11	324.142
44	6258	4.21	320.238
44	6408	4.31	316.32
44	6558	4.41	312.386
44	6708	4.51	308.438
44	6858	4.61	304.474
44	7008	4.71	300.496
44	7158	4.81	296.503
44	7308	4.91	292.495
44	7462	5.01	288.472
44	7612	5.11	284.434
44	7762	5.21	280.382
44	7912	5.31	276.314
44	8062	5.41	272.231
44	8212	5.51	268.133
44	8362	5.61	264.02
44	8512	5.71	259.893
44	8662	5.81	255.75
44	8812	5.91	251.592
44	8966	6.01	247.419
44	9116	6.11	243.232
44	9266	6.21	239.031
44	9416	6.31	234.816
44	9566	6.41	230.589
44	9716	6.51	226.349
44	9866	6.61	222.099
44	10016	6.71	217.839
44	10166	6.81	213.57
44	10316	6.91	209.293
44	10470	7.01	205.009
44	10620	7.11	200.719
44	10770	7.21	196.423
44	10920	7.31	192.123
44	11070	7.41	187.819
44	11220	7.51	183.512
44	11370	7.61	179.203
44	11520	7.71	174.891
44	11670	7.81	170.577
44	11820	7.91	166.263
44	11974	8.01	161.948
44	12124	8.11	157.632
44	12274	8.21	153.316
44	12424	8.31	149
44	12574	8.41	144.684
44	12724	8.51	140.369
44	12874	8.61	136.054
44	13024	8.71	131.74
44	13174	8.81	127.426
44	13324	8.91	123.113
44	13478	9.01	118.801
44	13628	9.11	114.489
44	13778	9.21	110.178
44	13928	9.31	105.867
44	14078	9.41	101.557
44	14228	9.51	97.2482
44	14378	9.61	92.9395
44	14528	9.71	88.6312
44	14678	9.81	84.3235
44	14828	9.91	80.0161
44	14982	10.01	75.7091
44	15132	10.11	71.4025
44	15282	10.21	67.0961
44	15432	10.31	62.79
44	15582	10.41	58.4841
44	15732	10.51	54.1784
44	15882	10.61	49.8729
44	16032	10.71	45.5675
44	16182	10.81	41.2622
44	16332	10.91	36.9569
44	16486	11.01	32.6517
44	16636	11.11	28.3466
44	16786	11.21	24.0415
44	16936	11.31	19.7364
44	17087	11.41	-1
44	17237	11.51	-1
44	17387	11.61	-1
44	17537	11.71	-1
44	17687	11.81	-1
44	17837	11.91	-1
44	17991	12.01	-1
44	18141	12.11	-1
44	18291	12.21	-1
44	18441	12.31	-1
44	18591	12.41	-1
44	18741	12.51	-1
44	18891	12.61	-1
44	19041	12.71	-1
44	19191	12.81	-1
44	19341	12.91	-1
44	19495	13.01	-1
44	19645	13.11	-1
44	19795	13.21	-1
44	19945	13.31	-1
44	20095	13.41	-1
44	20245	13.51	-1
44	20395	13.61	-1
44	20545	13.71	-1
44	20695	13.81	-1
44	20845	13.91	-1
44	20999	14.01	-1
44	21149	14.11	-1
44	21299	14.21	-1
44	21449	14.31	-1
44	21599	14.41	-1
44	21749	14.51	-1
44	21899	14.61	-1
44	22049	14.71	-1
44	22199	14.81	-1
44	22349	14.91	-1
44	22503	15.01	-1
44	22653	15.11	-1
44	22803	15.21	-1
44	22953	15.31	-1
44	23103	15.41	-1
44	23253	15.51	-1
44	23403	15.61	-1
44	23553	15.71	-1
44	23703	15.81	-1
44	23853	15.91	-1
44	24007	16.01	-1
44	24157	16.11	-1
44	24307	16.21	-1
44	24457	16.31	-1
44	24607	16.41	-1
44	24757	16.51	-1
44	24907	16.61	-1
44	25057	16.71	-1
44	25207	16.81	-1
44	25357	16.91	-1
44	25511	17.01	-1
44	25661	17.11	-1
44	25811	17.21	-1
44	25961	17.31	-1
44	26111	17.41	-1
44	26261	17.51	-1
44	26411	17.61	-1
44	26561	17.71	-1
44	26711	17.81	-1
44	26861	17.91	-1
44	27015	18.01	-1
44	27165	18.11	-1
44	27315	18.21	-1
44	27465	18.31	-1
44	27615	18.41	-1
44	27765	18.51	-1
44	27915	18.61	-1
44	28065	18.71	-1
44	28215	18.81	-1
44	28365	18.91	-1
44	28519	19.01	-1
44	28669	19.11	-1
44	28819	19.21	-1
44	28969	19.31	-1
44	29119	19.41	-1
44	29269	19.51	-1
44	29419	19.61	-1
44	29569	19.71	-1
44	29719	19.81	-1
44	29869	19.91	-1
44	30023	20.01	-1
44	30173	20.11	-1
44	30323	20.21	-1
44	30473	20.31	-1
44	30623	20.41	-1
44	30773	20.51	-1
44	30923	20.61	-1
44	31073	20.71	-1
44	31223	20.81	-1
44	31373	20.91	-1
44	31527	21.01	-1
44	31677	21.11	-1
44	31827	21.21	-1
44	31977	21.31	-1
44	32127	21.41	-1
44	32277	21.51	-1
44	32427	21.61	-1
44	32577	21.71	-1
44	32727	21.81	-1
44	32877	21.91	-1
44	33031	22.01	-1
44	33181	22.11	-1
44	33331	22.21	-1
44	33481	22.31	-1
44	33631	22.41	-1
44	33781	22.51	-1
44	33931	22.61	-1
44	34081	22.71	-1
44	34231	22.81	-1
44	34381	22.91	-1
44	34535	23.01	-1
44	34685	23.11	-1
44	34835	23.21	-1
44	34985	23.31	-1
44	35135	23.41	-1
44	35285	23.51	-1
44	35435	23.61	-1
44	35585	23.71	-1
44	35735	23.81	-1
44	35885	23.91	-1
44	36039	24.01	-1
44	36189	24.11	-1
44	36339	24.21	-1
44	36489	24.31	-1
44	36639	24.41	-1
44	36789	24.51	-1
44	36939	24.61	-1
44	37089	24.71	-1
44	37239	24.81	-1
44	37389	24.91	-1
44	37543	25.01	-1
44	37693	25.11	-1
44	37843	25.21	-1
44	37993	25.31	-1
44	38143	25.41	-1
44	38293	25.51	-1
44	38443	25.61	-1
44	38593	25.71	-1
44	38743	25.81	-1
44	38893	25.91	-1
44	39047	26.01	-1
44	39197	26.11	-1
44	39347	26.21	-1
44	39497	26.31	-1
44	39647	26.41	-1
44	39797	26.51	-1
44	39947	26.61	-1
44	40097	26.71	-1
44	40247	26.81	-1
44	40397	26.91	-1
44	40551	27.01	-1
44	40701	27.11	-1
44	40851	27.21	-1
44	41001	27.31	-1
44	41151	27.41	-1
44	41301	27.51	-1
44	41451	27.61	-1
44	41601	27.71	-1
44	41751	27.81	-1
44	41901	27.91	-1
44	42055	28.01	-1
44	42205	28.11	-1
44	42355	28.21	-1
44	42505	28.31	-1
44	42655	28.41	-1
44	42805	28.51	-1
44	42955	28.61	-1
44	43105	28.71	-1
44	43255	28.81	-1
44	43405	28.91	-1
44	43559	29.01	-1
44	43709	29.11	-1
44	43859	29.21	-1
44	44009	29.31	-1
44	44159	29.41	-1
44	44309	29.51	-1
44	44459	29.61	-1
44	44609	29.71	-1
44	44759	29.81	-1
44	44909	29.91	-1
44	45063	30.01	-1
44	45213	30.11	-1
44	45363	30.21	-1
44	45513	30.31	-1
44	45663	30.41	-1
44	45813	30.51	-1
44	45963	30.61	-1
44	46113	30.71	-1
44	46263	30.81	-1
44	46413	30.91	-1
44	46567	31.01	-1
44	46717	31.11	-1
44	46867	31.21	-1
44	47017	31.31	-1
44	47167	31.41	-1
44	47317	31.51	-1
44	47467	31.61	-1
44	47617	31.71	-1
44	47767	31.81	-1
44	47917	31.91	-1
44	48071	32.01	-1
44	48221	32.11	-1
44	48371	32.21	-1
44	48521	32.31	-1
44	48671	32.41	-1
44	48821	32.51	-1
44	48971	32.61	-1
44	49121	32.71	-1
44	49271	32.81	-1
44	49421	32.91	-1
44	49575	33.01	-1
44	49725	33.11	-1
44	49875	33.21	-1
44	50025	33.31	-1
44	50175	33.41	-1
44	50325	33.51	-1
44	50475	33.61	-1
44	50625	33.71	-1
44	50775	33.81	-1
44	50925	33.91	-1
44	51079	34.01	-1
44	51229	34.11	-1
44	51379	34.21	-1
44	51529	34.31	-1
44	51679	34.41	-1
46	26	0.21	3
46	176	0.31	3
46	326	0.41	3
46	476	0.51	3
46	626	0.61	3
46	776	0.71	3
46	926	0.81	3
46	1076	0.91	3
46	1230	1.01	3
46	1381	1.11	3
46	1532	1.21	3
46	1683	1.31	3
46	2046	1.41	3
46	2196	1.51	3
46	2346	1.61	3
46	2496	1.71	3
46	2646	1.81	3
46	2796	1.91	3
46	2950	2.01	3
46	3100	2.11	3
46	3250	2.21	3
46	3400	2.31	3
46	3550	2.41	3
46	3700	2.51	3
46	3850	2.61	3
46	4000	2.71	3
46	4150	2.81	3
46	4300	2.91	3
46	4454	3.01	3
46	4604	3.11	3
46	4754	3.21	3
46	4904	3.31	3
46	5054	3.41	3
46	5204	3.51	3
46	5354	3.61	3
46	5504	3.71	3
46	5654	3.81	3
46	5804	3.91	3
46	5958	4.01	3
46	6108	4.11	3
46	6258	4.21	3
46	6408	4.31	3
46	6558	4.41	3
46	6708	4.51	3
46	6858	4.61	3
46	7008	4.71	3
46	7158	4.81	3
46	7308	4.91	3
46	7462	5.01	3
46	7612	5.11	3
46	7762	5.21	3
46	7912	5.31	3
46	8062	5.41	3
46	8212	5.51	3
46	8362	5.61	3
46	8512	5.71	3
46	8662	5.81	3
46	8812	5.91	3
46	8966	6.01	3
46	9116	6.11	3
46	9266	6.21	3
46	9416	6.31	3
46	9566	6.41	3
46	9716	6.51	3
46	9866	6.61	3
46	10016	6.71	3
46	10166	6.81	3
46	10316	6.91	3
46	10470	7.01	3
46	10620	7.11	3
46	10770	7.21	3
46	10920	7.31	3
46	11070	7.41	3
46	11220	7.51	3
46	11370	7.61	3
46	11520	7.71	3
46	11670	7.81	3
46	11820	7.91	3
46	11974	8.01	3
46	12124	8.11	3
46	12274	8.21	3
46	12424	8.31	3
46	12574	8.41	3
46	12724	8.51	3
46	12874	8.61	3
46	13024	8.71	3
46	13174	8.81	3
46	13324	8.91	3
46	13478	9.01	3
46	13628	9.11	3
46	13778	9.21	3
46	13928	9.31	3
46	14078	9.41	3
46	14228	9.51	3
46	14378	9.61	3
46	14528	9.71	3
46	14678	9.81	3
46	14828	9.91	3
46	14982	10.01	3
46	15132	10.11	3
46	15282	10.21	3
46	15432	10.31	3
46	15582	10.41	3
46	15732	10.51	3
46	15882	10.61	3
46	16032	10.71	3
46	16182	10.81	3
46	16332	10.91	3
46	16486	11.01	3
46	16636	11.11	3
46	16786	11.21	3
46	16936	11.31	3
46	17087	11.41	3
46	17237	11.51	3
46	17387	11.61	3
46	17537	11.71	3
46	17687	11.81	3
46	17837	11.91	3
46	17991	12.01	3
46	18141	12.11	3
46	18291	12.21	3
46	18441	12.31	3
46	18591	12.41	3
46	18741	12.51	3
46	18891	12.61	3
46	19041	12.71	3
46	19191	12.81	3
46	19341	12.91	3
46	19495	13.01	3
46	19645	13.11	3
46	19795	13.21	3
46	19945	13.31	3
46	20095	13.41	3
46	20245	13.51	3
46	20395	13.61	3
46	20545	13.71	3
46	20695	13.81	3
46	20845	13.91	3
46	20999	14.01	3
46	21149	14.11	3
46	21299	14.21	3
46	21449	14.31	3
46	21599	14.41	3
46	21749	14.51	3
46	21899	14.61	3
46	22049	14.71	3
46	22199	14.81	3
46	22349	14.91	3
46	22503	15.01	3
46	22653	15.11	3
46	22803	15.21	3
46	22953	15.31	3
46	23103	15.41	3
46	23253	15.51	3
46	23403	15.61	3
46	23553	15.71	3
46	23703	15.81	3
46	23853	15.91	3
46	24007	16.01	3
46	24157	16.11	3
46	24307	16.21	3
46	24457	16.31	3
46	24607	16.41	3
46	24757	16.51	3
46	24907	16.61	3
46	25057	16.71	3
46	25207	16.81	3
46	25357	16.91	3
46	25511	17.01	3
46	25661	17.11	3
46	25811	17.21	3
46	25961	17.31	3
46	26111	17.41	3
46	26261	17.51	3
46	26411	17.61	3
46	26561	17.71	3
46	26711	17.81	3
46	26861	17.91	3
46	27015	18.01	3
46	27165	18.11	3
46	27315	18.21	3
46	27465	18.31	3
46	27615	18.41	3
46	27765	18.51	3
46	27915	18.61	3
46	28065	18.71	3
46	28215	18.81	3
46	28365	18.91	3
46	28519	19.01	3
46	28669	19.11	3
46	28819	19.21	3
46	28969	19.31	3
46	29119	19.41	3
46	29269	19.51	3
46	29419	19.61	3
46	29569	19.71	3
46	29719	19.81	3
46	29869	19.91	3
46	30023	20.01	3
46	30173	20.11	3
46	30323	20.21	3
46	30473	20.31	3
46	30623	20.41	3
46	30773	20.51	3
46	30923	20.61	3
46	31073	20.71	3
46	31223	20.81	3
46	31373	20.91	3
46	31527	21.01	3
46	31677	21.11	3
46	31827	21.21	3
46	31977	21.31	3
46	32127	21.41	3
46	32277	21.51	3
46	32427	21.61	3
46	32577	21.71	3
46	32727	21.81	3
46	32877	21.91	3
46	33031	22.01	3
46	33181	22.11	3
46	33331	22.21	3
46	33481	22.31	3
46	33631	22.41	3
46	33781	22.51	3
46	33931	22.61	3
46	34081	22.71	3
46	34231	22.81	3
46	34381	22.91	3
46	34535	23.01	3
46	34685	23.11	3
46	34835	23.21	3
46	34985	23.31	3
46	35135	23.41	3
46	35285	23.51	3
46	35435	23.61	3
46	35585	23.71	3
46	35735	23.81	3
46	35885	23.91	3
46	36039	24.01	3
46	36189	24.11	3
46	36339	24.21	3
46	36489	24.31	3
46	36639	24.41	3
46	36789	24.51	3
46	36939	24.61	3
46	37089	24.71	3
46	37239	24.81	3
46	37389	24.91	3
46	37543	25.01	3
46	37693	25.11	3
46	37843	25.21	3
46	37993	25.31	3
46	38143	25.41	3
46	38293	25.51	3
46	38443	25.61	3
46	38593	25.71	3
46	38743	25.81	3
46	38893	25.91	3
46	39047	26.01	3
46	39197	26.11	3
46	39347	26.21	3
46	39497	26.31	3
46	39647	26.41	3
46	39797	26.51	3
46	39947	26.61	3
46	40097	26.71	3
46	40247	26.81	3
46	40397	26.91	3
46	40551	27.01	3
46	40701	27.11	3
46	40851	27.21	3
46	41001	27.31	3
46	41151	27.41	3
46	41301	27.51	3
46	41451	27.61	3
46	41601	27.71	3
46	41751	27.81	3
46	41901	27.91	3
46	42055	28.01	3
46	42205	28.11	3
46	42355	28.21	3
46	42505	28.31	3
46	42655	28.41	3
46	42805	28.51	3
46	42955	28.61	3
46	43105	28.71	3
46	43255	28.81	3
46	43405	28.91	3
46	43559	29.01	3
46	43709	29.11	3
46	43859	29.21	3
46	44009	29.31	3
46	44159	29.41	3
46	44309	29.51	3
46	44459	29.61	3
46	44609	29.71	3
46	44759	29.81	3
46	44909	29.91	3
46	45063	30.01	3
46	45213	30.11	3
46	45363	30.21	3
46	45513	30.31	3
46	45663	30.41	3
46	45813	30.51	3
46	45963	30.61	3
46	46113	30.71	3
46	46263	30.81	3
46	46413	30.91	3
46	46567	31.01	3
46	46717	31.11	3
46	46867	31.21	3
46	47017	31.31	3
46	47167	31.41	3
46	47317	31.51	3
46	47467	31.61	3
46	47617	31.71	3
46	47767	31.81	3
46	47917	31.91	3
46	48071	32.01	3
46	48221	32.11	3
46	48371	32.21	3
46	48521	32.31	3
46	48671	32.41	3
46	48821	32.51	3
46	48971	32.61	3
46	49121	32.71	3
46	49271	32.81	3
46	49421	32.91	3
46	49575	33.01	3
46	49725	33.11	3
46	49875	33.21	3
46	50025	33.31	3
46	50175	33.41	3
46	50325	33.51	3
46	50475	33.61	3
46	50625	33.71	3
46	50775	33.81	3
46	50925	33.91	3
46	51079	34.01	3
46	51229	34.11	3
46	51379	34.21	3
46	51529	34.31	3
46	51679	34.41	3
67	1191	1	0
67	2911	2	0
67	4415	3	0
67	5919	4	0
67	7423	5	0
67	8927	6	0
67	10431	7	0
67	11935	8	0
67	13439	9	0
67	14943	10	0
67	16447	11	0
67	17952	12	0
67	19456	13	0
67	20960	14	0
67	22464	15	0
67	23968	16	0
67	25472	17	0
67	26976	18	0
67	28480	19	0
67	29984	20	0
67	31488	21	0
67	32992	22	0
67	34496	23	0
67	36000	24	0
67	37504	25	0
67	39008	26	0
67	40512	27	0
67	42016	28	0
67	43520	29	0
67	45024	30	0
67	46528	31	0
67	48032	32	0
67	49536	33	0
67	51040	34	0
66	1191	1	0.009679
66	2911	2	0.013005833522
66	4415	3	0.01249
66	5919	4	0.01249
66	7423	5	0.01249
66	8927	6	0.01249
66	10431	7	0.01249
66	11935	8	0.01249
66	13439	9	0.01249
66	14943	10	0.01249
66	16447	11	0.01249
66	17952	12	0.01249
66	19456	13	0.01249
66	20960	14	0.01249
66	22464	15	0.01249
66	23968	16	0.01249
66	25472	17	0.01249
66	26976	18	0.01249
66	28480	19	0.01249
66	29984	20	0.01249
66	31488	21	0.01249
66	32992	22	0.01249
66	34496	23	0.01249
66	36000	24	0.01249
66	37504	25	0.01249
66	39008	26	0.01249
66	40512	27	0.01249
66	42016	28	0.01249
66	43520	29	0.01249
66	45024	30	0.01249
66	46528	31	0.01249
66	48032	32	0.01249
66	49536	33	0.01249
66	51040	34	0.01249
65	1191	1	3
65	2911	2	3
65	4415	3	3
65	5919	4	3
65	7423	5	3
65	8927	6	3
65	10431	7	3
65	11935	8	3
65	13439	9	3
65	14943	10	3
65	16447	11	3
65	17952	12	3
65	19456	13	3
65	20960	14	3
65	22464	15	3
65	23968	16	3
65	25472	17	3
65	26976	18	3
65	28480	19	3
65	29984	20	3
65	31488	21	3
65	32992	22	3
65	34496	23	3
65	36000	24	3
65	37504	25	3
65	39008	26	3
65	40512	27	3
65	42016	28	3
65	43520	29	3
65	45024	30	3
65	46528	31	3
65	48032	32	3
65	49536	33	3
65	51040	34	3
19	15	0.13	2.1763587654741
19	16	0.14	2.1762060308025
19	17	0.15	2.1760563339034
19	18	0.16	2.1759096445761
19	19	0.17	2.1757659326225
19	20	0.18	2.1756251678512
19	21	0.19	2.1754873200851
19	22	0.2	2.1753523591664
19	27	0.21	2.1752202549617
19	62	0.22	2.1750909773682
19	97	0.23	2.1749644963185
19	98	0.24	2.1748407817852
19	99	0.25	2.1747198037881
19	134	0.26	2.1746015323969
19	135	0.27	2.1744859377376
19	136	0.28	2.1743729899968
19	137	0.29	2.1742626594255
19	138	0.3	2.174154916345
19	177	0.31	2.1740497311507
19	212	0.32	2.1739470743167
19	247	0.33	2.1738469163994
19	248	0.34	2.1737492280434
19	249	0.35	2.173653979983
19	284	0.36	2.1735611430482
19	285	0.37	2.1734706881683
19	286	0.38	2.1733825863743
19	287	0.39	2.1732968088043
19	288	0.4	2.1732133267055
19	327	0.41	2.17313211144
19	362	0.42	2.1730531344853
19	397	0.43	2.1729763674397
19	398	0.44	2.1729017820245
19	399	0.45	2.1728293500875
19	434	0.46	2.1727590436068
19	435	0.47	2.1726908346916
19	436	0.48	2.172624695588
19	437	0.49	2.1725605986794
19	438	0.5	2.17249851649
19	477	0.51	2.1724384216885
19	512	0.52	2.1723802870887
19	547	0.53	2.1723240856526
19	548	0.54	2.1722697904944
19	549	0.55	2.1722173748809
19	584	0.56	2.1721668122343
19	585	0.57	2.1721180761348
19	586	0.58	2.172071140322
19	587	0.59	2.1720259786971
19	588	0.6	2.1719825653262
19	627	0.61	2.1719408744402
19	662	0.62	2.1719008804372
19	697	0.63	2.1718625578852
19	698	0.64	2.1718258815223
19	699	0.65	2.1717908262593
19	734	0.66	2.1717573671816
19	735	0.67	2.1717254795495
19	736	0.68	2.1716951388001
19	737	0.69	2.1716663205492
19	738	0.7	2.1716390005924
19	777	0.71	2.1716131549045
19	812	0.72	2.1715887596444
19	847	0.73	2.1715657911523
19	848	0.74	2.1715442259536
19	849	0.75	2.1715240407587
19	884	0.76	2.1715052124633
19	885	0.77	2.1714877181509
19	886	0.78	2.171471535092
19	887	0.79	2.1714566407462
19	888	0.8	2.1714430127618
19	927	0.81	2.1714306289784
19	962	0.82	2.1714194674248
19	997	0.83	2.1714095063211
19	998	0.84	2.1714007240793
19	999	0.85	2.1713930993041
19	1034	0.86	2.1713866107919
19	1035	0.87	2.1713812375322
19	1036	0.88	2.1713769587082
19	1037	0.89	2.171373753697
19	1038	0.9	2.1713716020681
19	1077	0.91	2.1713704835865
19	1112	0.92	2.171370378211
19	1147	0.93	2.1713712660947
19	1148	0.94	2.1713731275852
19	1149	0.95	2.1713759432245
19	1184	0.96	2.1713796937487
19	1185	0.97	2.1713843600885
19	1186	0.98	2.1713899233693
19	1187	0.99	2.1713963649106
19	1192	1	2.1714036662261
19	1231	1.01	2.1714118090229
19	1266	1.02	2.1714207752021
19	1301	1.03	2.1714305468589
19	1302	1.04	2.171441106281
19	1303	1.05	2.1714524359493
19	1338	1.06	2.1714645185367
19	1339	1.07	2.1714773369085
19	1340	1.08	2.1714908741224
19	1341	1.09	2.1715051134258
19	1342	1.1	2.1715200382587
19	1382	1.11	2.1715356322509
19	1417	1.12	2.1715518792218
19	1452	1.13	2.1715687631793
19	1453	1.14	2.1715862683214
19	1454	1.15	2.1716043790338
19	1489	1.16	2.171623079889
19	1490	1.17	2.1716423556473
19	1491	1.18	2.171662191254
19	1492	1.19	2.171682571841
19	1493	1.2	2.171703482724
19	1533	1.21	2.1717249094032
19	1568	1.22	2.1717468375618
19	1603	1.23	2.1717692530656
19	1604	1.24	2.1717921419619
19	1605	1.25	2.1718154904791
19	1640	1.26	2.1718392850249
19	1641	1.27	2.1718635121865
19	1642	1.28	2.1718881587292
19	1643	1.29	2.1719132115965
19	1644	1.3	2.171938657907
19	1684	1.31	2.1719644849552
19	1931	1.32	2.17199068021
19	1966	1.33	2.1720172313142
19	1967	1.34	2.172044126083
19	1968	1.35	2.1720713525032
19	2004	1.36	2.1720988987321
19	2005	1.37	2.1721267530964
19	2006	1.38	2.1721549040918
19	2007	1.39	2.1721833403811
19	2008	1.4	2.1722120507936
19	2047	1.41	2.1722410243235
19	2082	1.42	2.1722702501298
19	2117	1.43	2.1722997175345
19	2118	1.44	2.1723294160211
19	2119	1.45	2.1723593352347
19	2154	1.46	2.1723894649803
19	2155	1.47	2.1724197952208
19	2156	1.48	2.1724503160769
19	2157	1.49	2.1724810178259
19	2158	1.5	2.1725118909007
19	2197	1.51	2.1725429258873
19	2232	1.52	2.172574113525
19	2267	1.53	2.1726054447051
19	2268	1.54	2.1726369104691
19	2269	1.55	2.1726685020078
19	2304	1.56	2.1727002106598
19	2305	1.57	2.1727320279108
19	2306	1.58	2.1727639453924
19	2307	1.59	2.1727959548804
19	2308	1.6	2.1728280482944
19	2347	1.61	2.172860217695
19	2382	1.62	2.1728924552844
19	2417	1.63	2.1729247534041
19	2418	1.64	2.1729571045343
19	2419	1.65	2.1729895012915
19	2454	1.66	2.1730219364285
19	2455	1.67	2.1730544028328
19	2456	1.68	2.1730868935245
19	2457	1.69	2.1731194016569
19	2458	1.7	2.1731519205143
19	2497	1.71	2.1731844435089
19	2532	1.72	2.1732169641831
19	2567	1.73	2.1732494762051
19	2568	1.74	2.1732819733699
19	2569	1.75	2.1733144495968
19	2604	1.76	2.1733468989278
19	2605	1.77	2.1733793155279
19	2606	1.78	2.1734116936827
19	2607	1.79	2.1734440277972
19	2608	1.8	2.1734763123949
19	2647	1.81	2.173508542117
19	2682	1.82	2.1735407117191
19	2717	1.83	2.1735728160728
19	2718	1.84	2.1736048501622
19	2719	1.85	2.1736368090841
19	2754	1.86	2.1736686880454
19	2755	1.87	2.1737004823636
19	2756	1.88	2.1737321874646
19	2757	1.89	2.1737637988809
19	2758	1.9	2.173795312251
19	2797	1.91	2.1738267233185
19	2832	1.92	2.1738580279308
19	2867	1.93	2.1738892220363
19	2868	1.94	2.1739203016865
19	2869	1.95	2.173951263031
19	2904	1.96	2.1739821023191
19	2905	1.97	2.174012815897
19	2906	1.98	2.174043400208
19	2907	1.99	2.1740738517898
19	2912	2	2.1741041672739
19	2951	2.01	2.1741343433852
19	2986	2.02	2.1741643769395
19	3021	2.03	2.1741942648435
19	3022	2.04	2.1742240040925
19	3023	2.05	2.1742535917705
19	3058	2.06	2.1742830250484
19	3059	2.07	2.1743123011825
19	3060	2.08	2.174341417514
19	3061	2.09	2.174370371467
19	3062	2.1	2.1743991605487
19	3101	2.11	2.1744277823472
19	3136	2.12	2.1744562345311
19	3171	2.13	2.1744845148467
19	3172	2.14	2.1745126211195
19	3173	2.15	2.1745405512509
19	3208	2.16	2.1745683032188
19	3209	2.17	2.1745958750751
19	3210	2.18	2.1746232649452
19	3211	2.19	2.1746504710276
19	3212	2.2	2.1746774915912
19	3251	2.21	2.1747043249761
19	3286	2.22	2.1747309695907
19	3321	2.23	2.174757423913
19	3322	2.24	2.1747836864865
19	3323	2.25	2.1748097559224
19	3358	2.26	2.1748356308961
19	3359	2.27	2.174861310147
19	3360	2.28	2.174886792478
19	3361	2.29	2.1749120767545
19	3362	2.3	2.1749371619018
19	3401	2.31	2.1749620469065
19	3436	2.32	2.1749867308135
19	3471	2.33	2.1750112127258
19	3472	2.34	2.1750354918044
19	3473	2.35	2.1750595672656
19	3508	2.36	2.1750834383818
19	3509	2.37	2.1751071044795
19	3510	2.38	2.1751305649385
19	3511	2.39	2.1751538191909
19	3512	2.4	2.1751768667204
19	3551	2.41	2.1751997070619
19	3586	2.42	2.175222339799
19	3621	2.43	2.1752447645654
19	3622	2.44	2.1752669810423
19	3623	2.45	2.1752889889574
19	3658	2.46	2.1753107880849
19	3659	2.47	2.1753323782445
19	3660	2.48	2.1753537593012
19	3661	2.49	2.1753749311624
19	3662	2.5	2.1753958937787
19	3701	2.51	2.1754166471432
19	3736	2.52	2.1754371912894
19	3771	2.53	2.1754575262918
19	3772	2.54	2.1754776522645
19	3773	2.55	2.1754975693598
19	3808	2.56	2.1755172777677
19	3809	2.57	2.1755367777166
19	3810	2.58	2.17555606947
19	3811	2.59	2.1755751533284
19	3812	2.6	2.1755940296255
19	3851	2.61	2.1756126987307
19	3886	2.62	2.175631161046
19	3921	2.63	2.1756494170058
19	3922	2.64	2.1756674670773
19	3923	2.65	2.1756853117584
19	3958	2.66	2.1757029515777
19	3959	2.67	2.1757203870935
19	3960	2.68	2.175737618893
19	3961	2.69	2.1757546475919
19	3962	2.7	2.1757714738339
19	4001	2.71	2.1757880982895
19	4036	2.72	2.1758045216559
19	4071	2.73	2.1758207446556
19	4072	2.74	2.1758367680366
19	4073	2.75	2.1758525925718
19	4108	2.76	2.1758682190567
19	4109	2.77	2.1758836483111
19	4110	2.78	2.1758988811775
19	4111	2.79	2.1759139185194
19	4112	2.8	2.1759287612218
19	4151	2.81	2.1759434101919
19	4186	2.82	2.1759578663552
19	4221	2.83	2.1759721306587
19	4222	2.84	2.175986204067
19	4223	2.85	2.176000087564
19	4258	2.86	2.1760137821506
19	4259	2.87	2.1760272888468
19	4260	2.88	2.1760406086883
19	4261	2.89	2.1760537427269
19	4262	2.9	2.1760666920304
19	4301	2.91	2.1760794576829
19	4336	2.92	2.1760920407815
19	4371	2.93	2.1761044424391
19	4372	2.94	2.1761166637812
19	4373	2.95	2.176128705948
19	4408	2.96	2.1761405700906
19	4409	2.97	2.1761522573742
19	4410	2.98	2.1761637689749
19	4411	2.99	2.1761751060802
19	4416	3	2.1761862698885
19	4455	3.01	2.176197261609
19	4490	3.02	2.1762080824612
19	4525	3.03	2.1762187336733
19	4526	3.04	2.1762292164839
19	4527	3.05	2.1762395321391
19	4562	3.06	2.1762496818933
19	4563	3.07	2.1762596670103
19	4564	3.08	2.1762694887598
19	4565	3.09	2.1762791484195
19	4566	3.1	2.1762886472741
19	4605	3.11	2.1762979866134
19	4640	3.12	2.1763071677348
19	4675	3.13	2.1763161919399
19	4676	3.14	2.176325060536
19	4677	3.15	2.1763337748355
19	4712	3.16	2.176342336155
19	4713	3.17	2.1763507458155
19	4714	3.18	2.1763590051423
19	4715	3.19	2.1763671154631
19	4716	3.2	2.1763750781094
19	4755	3.21	2.1763828944163
19	4790	3.22	2.1763905657199
19	4825	3.23	2.1763980933595
19	4826	3.24	2.1764054786759
19	4827	3.25	2.1764127230113
19	4862	3.26	2.17641982771
19	4863	3.27	2.1764267941168
19	4864	3.28	2.1764336235778
19	4865	3.29	2.1764403174391
19	4866	3.3	2.1764468770463
19	4905	3.31	2.1764533037465
19	4940	3.32	2.1764595988848
19	4975	3.33	2.1764657638071
19	4976	3.34	2.1764717998575
19	4977	3.35	2.1764777083801
19	5012	3.36	2.1764834907164
19	5013	3.37	2.1764891482064
19	5014	3.38	2.1764946821897
19	5015	3.39	2.1765000940024
19	5016	3.4	2.1765053849787
19	5055	3.41	2.1765105564508
19	5090	3.42	2.1765156097477
19	5125	3.43	2.1765205461962
19	5126	3.44	2.1765253671188
19	5127	3.45	2.1765300738359
19	5162	3.46	2.1765346676643
19	5163	3.47	2.1765391499161
19	5164	3.48	2.1765435219005
19	5165	3.49	2.1765477849224
19	5166	3.5	2.1765519402826
19	5205	3.51	2.1765559892767
19	5240	3.52	2.1765599331969
19	5275	3.53	2.1765637733304
19	5276	3.54	2.1765675109587
19	5277	3.55	2.1765711473591
19	5312	3.56	2.1765746838035
19	5313	3.57	2.1765781215583
19	5314	3.58	2.1765814618843
19	5315	3.59	2.1765847060376
19	5316	3.6	2.1765878552667
19	5355	3.61	2.1765909108161
19	5390	3.62	2.1765938739241
19	5425	3.63	2.1765967458213
19	5426	3.64	2.1765995277332
19	5427	3.65	2.1766022208793
19	5462	3.66	2.1766048264715
19	5463	3.67	2.1766073457159
19	5464	3.68	2.1766097798111
19	5465	3.69	2.1766121299503
19	5466	3.7	2.1766143973185
19	5505	3.71	2.1766165830939
19	5540	3.72	2.176618688448
19	5575	3.73	2.1766207145445
19	5576	3.74	2.1766226625406
19	5577	3.75	2.1766245335852
19	5612	3.76	2.1766263288209
19	5613	3.77	2.1766280493818
19	5614	3.78	2.176629696395
19	5615	3.79	2.1766312709793
19	5616	3.8	2.1766327742462
19	5655	3.81	2.1766342072996
19	5690	3.82	2.1766355712347
19	5725	3.83	2.1766368671397
19	5726	3.84	2.1766380960948
19	5727	3.85	2.1766392591711
19	5762	3.86	2.1766403574325
19	5763	3.87	2.1766413919346
19	5764	3.88	2.1766423637247
19	5765	3.89	2.1766432738415
19	5766	3.9	2.1766441233166
19	5805	3.91	2.1766449131724
19	5840	3.92	2.176645644422
19	5875	3.93	2.1766463180722
19	5876	3.94	2.1766469351198
19	5877	3.95	2.1766474965543
19	5912	3.96	2.1766480033551
19	5913	3.97	2.1766484564951
19	5914	3.98	2.1766488569366
19	5915	3.99	2.1766492056351
19	5920	4	2.1766495035362
19	5959	4.01	2.1766497515783
19	5994	4.02	2.1766499506902
19	6029	4.03	2.1766501017917
19	6030	4.04	2.1766502057952
19	6031	4.05	2.1766502636034
19	6066	4.06	2.1766502761103
19	6067	4.07	2.1766502442022
19	6068	4.08	2.1766501687565
19	6069	4.09	2.1766500506413
19	6070	4.1	2.1766498907167
19	6109	4.11	2.1766496898337
19	6144	4.12	2.1766494488348
19	6179	4.13	2.1766491685536
19	6180	4.14	2.1766488498155
19	6181	4.15	2.1766484934371
19	6216	4.16	2.1766481002266
19	6217	4.17	2.1766476709827
19	6218	4.18	2.1766472064965
19	6219	4.19	2.1766467075495
19	6220	4.2	2.1766461749156
19	6259	4.21	2.1766456093599
19	6294	4.22	2.176645011639
19	6329	4.23	2.1766443825009
19	6330	4.24	2.1766437226842
19	6331	4.25	2.1766430329204
19	6366	4.26	2.1766423139318
19	6367	4.27	2.1766415664323
19	6368	4.28	2.1766407911278
19	6369	4.29	2.176639988715
19	6370	4.3	2.1766391598832
19	6409	4.31	2.1766383053127
19	6444	4.32	2.1766374256759
19	6479	4.33	2.1766365216366
19	6480	4.34	2.1766355938507
19	6481	4.35	2.1766346429654
19	6516	4.36	2.1766336696206
19	6517	4.37	2.1766326744476
19	6518	4.38	2.1766316580689
19	6519	4.39	2.1766306210999
19	6520	4.4	2.1766295641479
19	6559	4.41	2.1766284878115
19	6594	4.42	2.176627392682
19	6629	4.43	2.1766262793428
19	6630	4.44	2.1766251483687
19	6631	4.45	2.176624000328
19	6666	4.46	2.1766228357803
19	6667	4.47	2.1766216552775
19	6668	4.48	2.1766204593635
19	6669	4.49	2.176619248575
19	6670	4.5	2.1766180234413
19	6709	4.51	2.1766167844842
[...]
2	62070	55.23	931.55726268403
2	62071	55.24	931.69615168374
2	62072	55.25	931.83504068346
2	62091	55.26	931.97392968317
2	62092	55.27	932.11281868289
2	62093	55.28	932.2517076826
2	62094	55.29	932.39059668231
2	62095	55.3	932.52948568203
2	62098	55.31	932.66837468175
2	62099	55.32	932.80726368146
2	62118	55.33	932.94615268118
2	62119	55.34	933.0850416809
2	62120	55.35	933.22393068061
2	62139	55.36	933.36281968033
2	62140	55.37	933.50170868005
2	62141	55.38	933.64059767977
2	62142	55.39	933.77948667949
2	62143	55.4	933.91837567921
2	62146	55.41	934.05726467893
2	62147	55.42	934.19615367865
2	62166	55.43	934.33504267837
2	62167	55.44	934.47393167809
2	62168	55.45	934.61282067782
2	62187	55.46	934.75170967754
2	62188	55.47	934.89059867726
2	62189	55.48	935.02948767698
2	62190	55.49	935.16837667671
2	62191	55.5	935.30726567643
2	62194	55.51	935.44615467616
2	62195	55.52	935.58504367588
2	62214	55.53	935.72393267561
2	62215	55.54	935.86282167533
2	62216	55.55	936.00171067506
2	62235	55.56	936.14059967479
2	62236	55.57	936.27948867451
2	62237	55.58	936.41837767424
2	62238	55.59	936.55726667397
2	62239	55.6	936.6961556737
2	62242	55.61	936.83504467343
2	62243	55.62	936.97393367316
2	62262	55.63	937.11282267289
2	62263	55.64	937.25171167262
2	62264	55.65	937.39060067235
2	62283	55.66	937.52948967208
2	62284	55.67	937.66837867181
2	62285	55.68	937.80726767154
2	62286	55.69	937.94615667127
2	62287	55.7	938.08504567101
2	62290	55.71	938.22393467074
2	62291	55.72	938.36282367047
2	62310	55.73	938.50171267021
2	62311	55.74	938.64060166994
2	62312	55.75	938.77949066968
2	62331	55.76	938.91837966941
2	62332	55.77	939.05726866915
2	62333	55.78	939.19615766888
2	62334	55.79	939.33504666862
2	62335	55.8	939.47393566836
2	62338	55.81	939.61282466809
2	62339	55.82	939.75171366783
2	62358	55.83	939.89060266757
2	62359	55.84	940.02949166731
2	62360	55.85	940.16838066705
2	62379	55.86	940.30726966679
2	62380	55.87	940.44615866653
2	62381	55.88	940.58504766627
2	62382	55.89	940.72393666601
2	62383	55.9	940.86282566575
2	62386	55.91	941.00171466549
2	62387	55.92	941.14060366523
2	62406	55.93	941.27949266497
2	62407	55.94	941.41838166472
2	62408	55.95	941.55727066446
2	62427	55.96	941.6961596642
2	62428	55.97	941.83504866395
2	62429	55.98	941.97393766369
2	62430	55.99	942.11282666343
2	62433	56	942.25171566318
2	62436	56.01	942.39060466292
2	62437	56.02	942.52949366267
2	62456	56.03	942.66838266242
2	62457	56.04	942.80727166216
2	62458	56.05	942.94616066191
2	62477	56.06	943.08504966166
2	62478	56.07	943.2239386614
2	62479	56.08	943.36282766115
2	62480	56.09	943.5017166609
2	62481	56.1	943.64060566065
2	62484	56.11	943.7794946604
2	62485	56.12	943.91838366015
2	62504	56.13	944.0572726599
2	62505	56.14	944.19616165965
2	62506	56.15	944.3350506594
2	62525	56.16	944.47393965915
2	62526	56.17	944.6128286589
2	62527	56.18	944.75171765866
2	62528	56.19	944.89060665841
2	62529	56.2	945.02949565816
2	62532	56.21	945.16838465791
2	62533	56.22	945.30727365767
2	62552	56.23	945.44616265742
2	62553	56.24	945.58505165718
2	62554	56.25	945.72394065693
2	62573	56.26	945.86282965669
2	62574	56.27	946.00171865644
2	62575	56.28	946.1406076562
2	62576	56.29	946.27949665595
2	62577	56.3	946.41838565571
2	62580	56.31	946.55727465547
2	62581	56.32	946.69616365522
2	62600	56.33	946.83505265498
2	62601	56.34	946.97394165474
2	62602	56.35	947.1128306545
2	62621	56.36	947.25171965426
2	62622	56.37	947.39060865402
2	62623	56.38	947.52949765378
2	62624	56.39	947.66838665354
2	62625	56.4	947.8072756533
2	62628	56.41	947.94616465306
2	62629	56.42	948.08505365282
2	62648	56.43	948.22394265258
2	62649	56.44	948.36283165234
2	62650	56.45	948.5017206521
2	62669	56.46	948.64060965187
2	62670	56.47	948.77949865163
2	62671	56.48	948.91838765139
2	62672	56.49	949.05727665116
2	62673	56.5	949.19616565092
2	62676	56.51	949.33505465069
2	62677	56.52	949.47394365045
2	62696	56.53	949.61283265022
2	62697	56.54	949.75172164998
2	62698	56.55	949.89061064975
2	62717	56.56	950.02949964951
2	62718	56.57	950.16838864928
2	62719	56.58	950.30727764905
2	62720	56.59	950.44616664881
2	62721	56.6	950.58505564858
2	62724	56.61	950.72394464835
2	62725	56.62	950.86283364812
2	62744	56.63	951.00172264789
2	62745	56.64	951.14061164766
2	62746	56.65	951.27950064743
2	62765	56.66	951.4183896472
2	62766	56.67	951.55727864697
2	62767	56.68	951.69616764674
2	62768	56.69	951.83505664651
2	62769	56.7	951.97394564628
2	62772	56.71	952.11283464605
2	62773	56.72	952.25172364582
2	62792	56.73	952.3906126456
2	62793	56.74	952.52950164537
2	62794	56.75	952.66839064514
2	62813	56.76	952.80727964491
2	62814	56.77	952.94616864469
2	62815	56.78	953.08505764446
2	62816	56.79	953.22394664424
2	62817	56.8	953.36283564401
2	62820	56.81	953.50172464379
2	62821	56.82	953.64061364356
2	62840	56.83	953.77950264334
2	62841	56.84	953.91839164312
2	62842	56.85	954.05728064289
2	62861	56.86	954.19616964267
2	62862	56.87	954.33505864245
2	62863	56.88	954.47394764222
2	62864	56.89	954.612836642
2	62865	56.9	954.75172564178
2	62868	56.91	954.89061464156
2	62869	56.92	955.02950364134
2	62888	56.93	955.16839264112
2	62889	56.94	955.3072816409
2	62890	56.95	955.44617064068
2	62909	56.96	955.58505964046
2	62910	56.97	955.72394864024
2	62911	56.98	955.86283764002
2	62912	56.99	956.0017266398
2	62915	57	956.14061563958
2	62918	57.01	956.27950463937
2	62919	57.02	956.41839363915
2	62938	57.03	956.55728263893
2	62939	57.04	956.69617163871
2	62940	57.05	956.8350606385
2	62959	57.06	956.97394963828
2	62960	57.07	957.11283863806
2	62961	57.08	957.25172763785
2	62962	57.09	957.39061663763
2	62963	57.1	957.52950563742
2	62966	57.11	957.66839463721
2	62967	57.12	957.80728363699
2	62986	57.13	957.94617263678
2	62987	57.14	958.08506163656
2	62988	57.15	958.22395063635
2	63007	57.16	958.36283963614
2	63008	57.17	958.50172863593
2	63009	57.18	958.64061763571
2	63010	57.19	958.7795066355
2	63011	57.2	958.91839563529
2	63014	57.21	959.05728463508
2	63015	57.22	959.19617363487
2	63034	57.23	959.33506263466
2	63035	57.24	959.47395163445
2	63036	57.25	959.61284063424
2	63055	57.26	959.75172963403
2	63056	57.27	959.89061863382
2	63057	57.28	960.02950763361
2	63058	57.29	960.1683966334
2	63059	57.3	960.30728563319
2	63062	57.31	960.44617463299
2	63063	57.32	960.58506363278
2	63082	57.33	960.72395263257
2	63083	57.34	960.86284163236
2	63084	57.35	961.00173063216
2	63103	57.36	961.14061963195
2	63104	57.37	961.27950863174
2	63105	57.38	961.41839763154
2	63106	57.39	961.55728663133
2	63107	57.4	961.69617563113
2	63110	57.41	961.83506463092
2	63111	57.42	961.97395363072
2	63130	57.43	962.11284263052
2	63131	57.44	962.25173163031
2	63132	57.45	962.39062063011
2	63151	57.46	962.52950962991
2	63152	57.47	962.6683986297
2	63153	57.48	962.8072876295
2	63154	57.49	962.9461766293
2	63155	57.5	963.0850656291
2	63158	57.51	963.22395462889
2	63159	57.52	963.36284362869
2	63178	57.53	963.50173262849
2	63179	57.54	963.64062162829
2	63180	57.55	963.77951062809
2	63199	57.56	963.91839962789
2	63200	57.57	964.05728862769
2	63201	57.58	964.19617762749
2	63202	57.59	964.33506662729
2	63203	57.6	964.4739556271
2	63206	57.61	964.6128446269
2	63207	57.62	964.7517336267
2	63226	57.63	964.8906226265
2	63227	57.64	965.0295116263
2	63228	57.65	965.16840062611
2	63247	57.66	965.30728962591
2	63248	57.67	965.44617862571
2	63249	57.68	965.58506762552
2	63250	57.69	965.72395662532
2	63251	57.7	965.86284562513
2	63254	57.71	966.00173462493
2	63255	57.72	966.14062362474
2	63274	57.73	966.27951262454
2	63275	57.74	966.41840162435
2	63276	57.75	966.55729062415
2	63295	57.76	966.69617962396
2	63296	57.77	966.83506862377
2	63297	57.78	966.97395762357
2	63298	57.79	967.11284662338
2	63299	57.8	967.25173562319
2	63302	57.81	967.39062462299
2	63303	57.82	967.5295136228
2	63322	57.83	967.66840262261
2	63323	57.84	967.80729162242
2	63324	57.85	967.94618062223
2	63343	57.86	968.08506962204
2	63344	57.87	968.22395862185
2	63345	57.88	968.36284762166
2	63346	57.89	968.50173662147
2	63347	57.9	968.64062562128
2	63350	57.91	968.77951462109
2	63351	57.92	968.9184036209
2	63370	57.93	969.05729262071
2	63371	57.94	969.19618162052
2	63372	57.95	969.33507062033
2	63391	57.96	969.47395962015
2	63392	57.97	969.61284861996
2	63393	57.98	969.75173761977
2	63394	57.99	969.89062661958
2	63397	58	970.0295156194
2	63400	58.01	970.16840461921
2	63401	58.02	970.30729361903
2	63420	58.03	970.44618261884
2	63421	58.04	970.58507161865
2	63422	58.05	970.72396061847
2	63441	58.06	970.86284961828
2	63442	58.07	971.0017386181
2	63443	58.08	971.14062761791
2	63444	58.09	971.27951661773
2	63445	58.1	971.41840561755
2	63448	58.11	971.55729461736
2	63449	58.12	971.69618361718
2	63468	58.13	971.835072617
2	63469	58.14	971.97396161681
2	63470	58.15	972.11285061663
2	63489	58.16	972.25173961645
2	63490	58.17	972.39062861627
2	63491	58.18	972.52951761609
2	63492	58.19	972.66840661591
2	63493	58.2	972.80729561573
2	63496	58.21	972.94618461554
2	63497	58.22	973.08507361536
2	63516	58.23	973.22396261518
2	63517	58.24	973.362851615
2	63518	58.25	973.50174061482
2	63537	58.26	973.64062961465
2	63538	58.27	973.77951861447
2	63539	58.28	973.91840761429
2	63540	58.29	974.05729661411
2	63541	58.3	974.19618561393
2	63544	58.31	974.33507461375
2	63545	58.32	974.47396361358
2	63564	58.33	974.6128526134
2	63565	58.34	974.75174161322
2	63566	58.35	974.89063061304
2	63585	58.36	975.02951961287
2	63586	58.37	975.16840861269
2	63587	58.38	975.30729761252
2	63588	58.39	975.44618661234
2	63589	58.4	975.58507561217
2	63592	58.41	975.72396461199
2	63593	58.42	975.86285361182
2	63612	58.43	976.00174261164
2	63613	58.44	976.14063161147
2	63614	58.45	976.27952061129
2	63633	58.46	976.41840961112
2	63634	58.47	976.55729861095
2	63635	58.48	976.69618761077
2	63636	58.49	976.8350766106
2	63637	58.5	976.97396561043
2	63640	58.51	977.11285461025
2	63641	58.52	977.25174361008
2	63660	58.53	977.39063260991
2	63661	58.54	977.52952160974
2	63662	58.55	977.66841060957
2	63681	58.56	977.8072996094
2	63682	58.57	977.94618860923
2	63683	58.58	978.08507760906
2	63684	58.59	978.22396660889
2	63685	58.6	978.36285560872
2	63688	58.61	978.50174460855
2	63689	58.62	978.64063360838
2	63708	58.63	978.77952260821
2	63709	58.64	978.91841160804
2	63710	58.65	979.05730060787
2	63729	58.66	979.1961896077
2	63730	58.67	979.33507860753
2	63731	58.68	979.47396760736
2	63732	58.69	979.6128566072
2	63733	58.7	979.75174560703
2	63736	58.71	979.89063460686
2	63737	58.72	980.0295236067
2	63756	58.73	980.16841260653
2	63757	58.74	980.30730160636
2	63758	58.75	980.4461906062
2	63777	58.76	980.58507960603
2	63778	58.77	980.72396860587
2	63779	58.78	980.8628576057
2	63780	58.79	981.00174660554
2	63781	58.8	981.14063560537
2	63784	58.81	981.27952460521
2	63785	58.82	981.41841360504
2	63804	58.83	981.55730260488
2	63805	58.84	981.69619160471
2	63806	58.85	981.83508060455
2	63825	58.86	981.97396960439
2	63826	58.87	982.11285860422
2	63827	58.88	982.25174760406
2	63828	58.89	982.3906366039
2	63829	58.9	982.52952560374
2	63832	58.91	982.66841460358
2	63833	58.92	982.80730360341
2	63852	58.93	982.94619260325
2	63853	58.94	983.08508160309
2	63854	58.95	983.22397060293
2	63873	58.96	983.36285960277
2	63874	58.97	983.50174860261
2	63875	58.98	983.64063760245
2	63876	58.99	983.77952660229
2	63879	59	983.91841560213
2	63882	59.01	984.05730460197
2	63883	59.02	984.19619360181
2	63902	59.03	984.33508260165
2	63903	59.04	984.47397160149
2	63904	59.05	984.61286060133
2	63923	59.06	984.75174960118
2	63924	59.07	984.89063860102
2	63925	59.08	985.02952760086
2	63926	59.09	985.1684166007
2	63927	59.1	985.30730560055
2	63930	59.11	985.44619460039
2	63931	59.12	985.58508360023
2	63950	59.13	985.72397260008
2	63951	59.14	985.86286159992
2	63952	59.15	986.00175059976
2	63971	59.16	986.14063959961
2	63972	59.17	986.27952859945
2	63973	59.18	986.4184175993
2	63974	59.19	986.55730659914
2	63975	59.2	986.69619559899
2	63978	59.21	986.83508459883
2	63979	59.22	986.97397359868
2	63998	59.23	987.11286259852
2	63999	59.24	987.25175159837
2	64000	59.25	987.39064059822
2	64019	59.26	987.52952959806
2	64020	59.27	987.66841859791
2	64021	59.28	987.80730759776
2	64022	59.29	987.94619659761
2	64023	59.3	988.08508559745
2	64026	59.31	988.2239745973
2	64027	59.32	988.36286359715
2	64046	59.33	988.501752597
2	64047	59.34	988.64064159685
2	64048	59.35	988.77953059669
2	64067	59.36	988.91841959654
2	64068	59.37	989.05730859639
2	64069	59.38	989.19619759624
2	64070	59.39	989.33508659609
2	64071	59.4	989.47397559594
2	64074	59.41	989.61286459579
2	64075	59.42	989.75175359564
2	64094	59.43	989.89064259549
2	64095	59.44	990.02953159534
2	64096	59.45	990.1684205952
2	64115	59.46	990.30730959505
2	64116	59.47	990.4461985949
2	64117	59.48	990.58508759475
2	64118	59.49	990.7239765946
2	64119	59.5	990.86286559446
2	64122	59.51	991.00175459431
2	64123	59.52	991.14064359416
2	64142	59.53	991.27953259401
2	64143	59.54	991.41842159387
2	64144	59.55	991.55731059372
2	64163	59.56	991.69619959357
2	64164	59.57	991.83508859343
2	64165	59.58	991.97397759328
2	64166	59.59	992.11286659314
2	64167	59.6	992.25175559299
2	64170	59.61	992.39064459285
2	64171	59.62	992.5295335927
2	64190	59.63	992.66842259256
2	64191	59.64	992.80731159241
2	64192	59.65	992.94620059227
2	64211	59.66	993.08508959212
2	64212	59.67	993.22397859198
2	64213	59.68	993.36286759183
2	64214	59.69	993.50175659169
2	64215	59.7	993.64064559155
2	64218	59.71	993.77953459141
2	64219	59.72	993.91842359126
2	64238	59.73	994.05731259112
2	64239	59.74	994.19620159098
2	64240	59.75	994.33509059084
2	64259	59.76	994.47397959069
2	64260	59.77	994.61286859055
2	64261	59.78	994.75175759041
2	64262	59.79	994.89064659027
2	64263	59.8	995.02953559013
2	64266	59.81	995.16842458999
2	64267	59.82	995.30731358985
2	64286	59.83	995.44620258971
2	64287	59.84	995.58509158957
2	64288	59.85	995.72398058943
2	64307	59.86	995.86286958929
2	64308	59.87	996.00175858915
2	64309	59.88	996.14064758901
2	64310	59.89	996.27953658887
2	64311	59.9	996.41842558873
2	64314	59.91	996.55731458859
2	64315	59.92	996.69620358845
2	64334	59.93	996.83509258832
2	64335	59.94	996.97398158818
2	64336	59.95	997.11287058804
2	64355	59.96	997.2517595879
2	64356	59.97	997.39064858777
2	64357	59.98	997.52953758763
2	64358	59.99	997.66842658749
2	64361	60	997.80731558736
2	64364	60.01	997.94620458722
2	64365	60.02	998.08509358708
2	64384	60.03	998.22398258695
2	64385	60.04	998.36287158681
2	64386	60.05	998.50176058668
2	64405	60.06	998.64064958654
2	64406	60.07	998.77953858641
2	64407	60.08	998.91842758627
2	64408	60.09	999.05731658614
2	64409	60.1	999.196205586
2	64412	60.11	999.33509458587
2	64413	60.12	999.47398358573
2	64432	60.13	999.6128725856
2	64433	60.14	999.75176158547
2	64434	60.15	999.89065058533
2	64453	60.16	1000.0295395852
2	64454	60.17	1000.1684285851
2	64455	60.18	1000.3073175849
2	64456	60.19	1000.4462065848
2	64457	60.2	1000.5850955847
2	64460	60.21	1000.7239845845
2	64461	60.22	1000.8628735844
2	64480	60.23	1001.0017625843
2	64481	60.24	1001.1406515841
2	64482	60.25	1001.279540584
2	64501	60.26	1001.4184295839
2	64502	60.27	1001.5573185837
2	64503	60.28	1001.6962075836
2	64504	60.29	1001.8350965835
2	64505	60.3	1001.9739855834
2	64508	60.31	1002.1128745832
2	64509	60.32	1002.2517635831
2	64528	60.33	1002.390652583
2	64529	60.34	1002.5295415828
2	64530	60.35	1002.6684305827
2	64549	60.36	1002.8073195826
2	64550	60.37	1002.9462085824
2	64551	60.38	1003.0850975823
2	64552	60.39	1003.2239865822
2	64553	60.4	1003.3628755821
2	64556	60.41	1003.5017645819
2	64557	60.42	1003.6406535818
2	64576	60.43	1003.7795425817
2	64577	60.44	1003.9184315816
2	64578	60.45	1004.0573205814
2	64597	60.46	1004.1962095813
2	64598	60.47	1004.3350985812
2	64599	60.48	1004.473987581
2	64600	60.49	1004.6128765809
2	64601	60.5	1004.7517655808
2	64604	60.51	1004.8906545807
2	64605	60.52	1005.0295435805
2	64624	60.53	1005.1684325804
2	64625	60.54	1005.3073215803
2	64626	60.55	1005.4462105802
2	64645	60.56	1005.58509958
2	64646	60.57	1005.7239885799
2	64647	60.58	1005.8628775798
2	64648	60.59	1006.0017665797
2	64649	60.6	1006.1406555795
2	64652	60.61	1006.2795445794
2	64653	60.62	1006.4184335793
2	64672	60.63	1006.5573225792
2	64673	60.64	1006.696211579
2	64674	60.65	1006.8351005789
2	64693	60.66	1006.9739895788
2	64694	60.67	1007.1128785787
2	64695	60.68	1007.2517675786
2	64696	60.69	1007.3906565784
2	64697	60.7	1007.5295455783
2	64700	60.71	1007.6684345782
2	64701	60.72	1007.8073235781
2	64720	60.73	1007.9462125779
2	64721	60.74	1008.0851015778
2	64722	60.75	1008.2239905777
2	64741	60.76	1008.3628795776
2	64742	60.77	1008.5017685775
2	64743	60.78	1008.6406575773
2	64744	60.79	1008.7795465772
2	64745	60.8	1008.9184355771
2	64748	60.81	1009.057324577
2	64749	60.82	1009.1962135769
2	64768	60.83	1009.3351025767
2	64769	60.84	1009.4739915766
2	64770	60.85	1009.6128805765
2	64789	60.86	1009.7517695764
2	64790	60.87	1009.8906585763
2	64791	60.88	1010.0295475761
2	64792	60.89	1010.168436576
2	64793	60.9	1010.3073255759
2	64796	60.91	1010.4462145758
2	64797	60.92	1010.5851035757
2	64816	60.93	1010.7239925755
2	64817	60.94	1010.8628815754
2	64818	60.95	1011.0017705753
2	64837	60.96	1011.1406595752
2	64838	60.97	1011.2795485751
2	64839	60.98	1011.418437575
2	64840	60.99	1011.5573265748
2	64843	61	1011.6962155747
2	64846	61.01	1011.8351045746
2	64847	61.02	1011.9739935745
2	64866	61.03	1012.1128825744
2	64867	61.04	1012.2517715743
2	64868	61.05	1012.3906605741
2	64887	61.06	1012.529549574
2	64888	61.07	1012.6684385739
2	64889	61.08	1012.8073275738
2	64890	61.09	1012.9462165737
2	64891	61.1	1013.0851055736
2	64894	61.11	1013.2239945734
2	64895	61.12	1013.3628835733
2	64914	61.13	1013.5017725732
2	64915	61.14	1013.6406615731
2	64916	61.15	1013.779550573
2	64935	61.16	1013.9184395729
2	64936	61.17	1014.0573285728
2	64937	61.18	1014.1962175726
2	64938	61.19	1014.3351065725
2	64939	61.2	1014.4739955724
2	64942	61.21	1014.6128845723
2	64943	61.22	1014.7517735722
2	64962	61.23	1014.8906625721
2	64963	61.24	1015.029551572
2	64964	61.25	1015.1684405719
2	64983	61.26	1015.3073295717
2	64984	61.27	1015.4462185716
2	64985	61.28	1015.5851075715
2	64986	61.29	1015.7239965714
2	64987	61.3	1015.8628855713
2	64990	61.31	1016.0017745712
2	64991	61.32	1016.1406660221
2	65002	61.33	1016.2795647778
2	65003	61.34	1016.4184755972
2	65004	61.35	1016.5574031456
2	65005	61.36	1016.6963519969
2	65006	61.37	1016.8353266355
2	65007	61.38	1016.9743314577
2	65008	61.39	1017.1133707735
2	65009	61.4	1017.2524488086
2	65011	61.41	1017.3915697058
2	65012	61.42	1017.5307375265
2	65023	61.43	1017.6699562528
2	65024	61.44	1017.8092297883
2	65025	61.45	1017.9485619604
2	65026	61.46	1018.0879565212
2	65027	61.47	1018.2274171495
2	65028	61.48	1018.3669474518
2	65029	61.49	1018.5065509638
2	65030	61.5	1018.646231152
2	65032	61.51	1018.785991415
2	65033	61.52	1018.9258350845
2	65044	61.53	1019.0657654273
2	65045	61.54	1019.2057856456
2	65046	61.55	1019.3458988793
2	65047	61.56	1019.4861082064
2	65048	61.57	1019.6264166448
2	65049	61.58	1019.766827153
2	65050	61.59	1019.9073426316
2	65051	61.6	1020.0479659244
2	65053	61.61	1020.1886998192
2	65054	61.62	1020.3295470495
2	65065	61.63	1020.4705102949
2	65066	61.64	1020.6115921824
2	65067	61.65	1020.7527952879
2	65068	61.66	1020.8941221364
2	65069	61.67	1021.0355752036
2	65070	61.68	1021.1771569165
2	65071	61.69	1021.3188696547
2	65072	61.7	1021.4607157509
2	65074	61.71	1021.6026974923
2	65075	61.72	1021.7448171211
2	65086	61.73	1021.8870768356
2	65087	61.74	1022.029478791
2	65088	61.75	1022.1720251002
2	65089	61.76	1022.3147178347
2	65090	61.77	1022.4575590254
2	65091	61.78	1022.6005506634
2	65092	61.79	1022.7436947006
2	65093	61.8	1022.8869930508
2	65095	61.81	1023.0304475902
2	65096	61.82	1023.1740601582
2	65107	61.83	1023.3178325583
2	65108	61.84	1023.4617665583
2	65109	61.85	1023.6058638917
2	65110	61.86	1023.7501262577
2	65111	61.87	1023.8945553225
2	65112	61.88	1024.0391527193
2	65113	61.89	1024.1839200495
2	65114	61.9	1024.328858883
2	65116	61.91	1024.473970759
2	65117	61.92	1024.6192571865
2	65128	61.93	1024.7647196448

