version 3
run OvertakeNoGui-202-20241104-10:02:22-91172
attr configname OvertakeNoGui
attr datetime 20241104-10:02:22
attr datetimef 20241104-100222
attr experiment OvertakeNoGui
attr inifile omnetpp.ini
attr iterationvars "$leaderHeadway=1.2, $leaderSpeed=50, $controller=0, $pCSpeed=54, $pDeltaC=496"
attr iterationvarsd leaderHeadway=1.2/leaderSpeed=50/controller=0/pCSpeed=54/pDeltaC=496
attr iterationvarsf leaderHeadway=1.2,leaderSpeed=50,controller=0,pCSpeed=54,pDeltaC=496-
attr measurement "$leaderHeadway=1.2, $leaderSpeed=50, $controller=0, $pCSpeed=54, $pDeltaC=496"
attr network Overtake
attr processid 91172
attr repetition 0
attr replication #0
attr resultdir results
attr runnumber 202
attr seedset 0
itervar controller 0
itervar leaderHeadway 1.2
itervar leaderSpeed 50
itervar pCSpeed 54
itervar pDeltaC 496
config image-path ../../../../veins/images;../../images
config *.manager.command "\"sumo\""
config *.manager.ignoreGuiCommands true
config *.node[*].scenario_type "\"OvertakeScenario\""
config output-vector-file results/OvertakeNoGui_54_496_0.vec
config output-scalar-file results/OvertakeNoGui_54_496_0.sca
config cmdenv-express-mode false
config cmdenv-autoflush true
config cmdenv-status-frequency 10s
config num-rngs 6
config cmdenv-output-file log.txt
config cmdenv-redirect-output true
config network Overtake
config debug-on-errors true
config print-undisposed true
config *.playgroundSizeX 65000m
config *.playgroundSizeY 25000m
config *.playgroundSizeZ 50m
config sim-time-limit "360 s"
config *.annotations.draw false
config *.obstacles.debug false
config *.world.useTorus false
config *.world.use2D false
config *.manager.updateInterval 0.01s
config *.manager.host "\"localhost\""
config *.manager.moduleType "\"vtypeauto=org.car2x.plexe.PlatoonCar vtypehuman=0\""
config *.manager.moduleName "\"vtypeauto=node vtypehuman=0\""
config *.manager.moduleDisplayString "\"\""
config *.manager.autoShutdown true
config *.manager.margin 25
config *.manager.order -1
config *.connectionManager.sendDirect true
config *.connectionManager.maxInterfDist 2600m
config *.connectionManager.drawMaxIntfDist false
config *.**.nic.mac1609_4.useServiceChannel false
config *.**.nic.mac1609_4.txPower 100mW
config *.**.nic.mac1609_4.bitrate 6Mbps
config *.**.nic.mac1609_4.useAcks true
config *.**.nic.mac1609_4.ackErrorRate 0.0
config *.**.nic.mac1609_4.frameErrorRate 0.0
config *.**.nic.phy80211p.minPowerLevel -94dBm
config *.**.nic.phy80211p.maxTXPower 100mW
config *.**.nic.phy80211p.useNoiseFloor true
config *.**.nic.phy80211p.noiseFloor -95dBm
config *.**.nic.phy80211p.decider "xmldoc(\"config.xml\")"
config *.**.nic.phy80211p.analogueModels "xmldoc(\"config.xml\")"
config *.**.nic.phy80211p.usePropagationDelay true
config *.node[*].mobility.x 0
config *.node[*].mobility.y 0
config *.node[*].mobility.z 1.895
config *.shockwave[*].mobility.x 0
config *.shockwave[*].mobility.y 0
config *.shockwave[*].mobility.z 1.895
config seed-set 0
config **.seed 0
config *.node[*].prot.rng-0 2
config *.node[*].appl.rng-0 3
config *.node[*].scenario.rng-0 4
config *.manager.configFile "\"./sumocfg/overtake.sumo.cfg\""
config *.manager.launchConfig "xmldoc(\"./sumocfg/overtake.launchd.xml\")"
config *.node[*].helper_type "\"PositionHelper\""
config *.node[*].scenario.caccC1 0.5
config *.node[*].scenario.caccXi 1
config *.node[*].scenario.caccOmegaN "0.2 Hz"
config *.node[*].scenario.caccSpacing "5 m"
config *.node[*].scenario.engineTau "0.5 s"
config *.node[*].scenario.ploegH "0.5 s"
config *.node[*].scenario.ploegKp 0.2
config *.node[*].scenario.ploegKd 0.7
config *.node[*].scenario.useRealisticEngine false
config *.node[*].scenario.targetController "\"CACC\""
config *.node[*].scenario.accHeadway "0.1 s"
config *.node[*].scenario.leaderHeadway "1.2 s"
config *.node[*].scenario.leaderSpeed "50 kmph"
config *.node[*].appl_type "\"OvertakeApp\""
config *.node[*].appl.*.scalar-recording true
config *.node[*].appl.*.vector-recording true
config *.node[*].appl.overtakeManeuver "\"OvertakeManeuver\""
config *.node[*].protocol_type "\"SimplePlatooningBeaconing\""
config *.node[*].prot.*.scalar-recording true
config *.node[*].prot.*.vector-recording true
config *.node[*].prot.beaconingInterval "0.1 s"
config *.node[*].prot.priority 4
config *.node[*].prot.packetSize 200
config *.node[*].prot.useControllerAcceleration true
config **.traffic_type "\"OvertakeTrafficManager\""
config **.traffic.platoonInsertTime "0.1 s"
config **.traffic.platooningVType "\"vtypeauto\""
config **.numericController 0
config **.traffic.platoonInsertDistance 5m
config **.traffic.platoonInsertHeadway 0s
config **.traffic.platoonLeaderHeadway 1.2s
config **.traffic.platoonASpeed 50kmph
config **.traffic.platoonBSpeed 100kmph
config **.traffic.platoonCSpeed 54kmph
config **.traffic.platoonSizeA 2
config **.traffic.platoonSizeB 1
config **.traffic.platoonSizeC 1
config **.traffic.initialPositionDeltaA 150
config **.traffic.initialPositionDeltaB 50
config **.traffic.initialPositionDeltaC 496
config **.traffic.controller "\"CACC\""
config **.scalar-recording true
config **.vector-recording true

vector 0 Overtake.node[0].mobility posx ETV
vector 1 Overtake.node[0].mobility posy ETV
vector 2 Overtake.node[1].mobility posx ETV
vector 3 Overtake.node[1].mobility posy ETV
vector 4 Overtake.node[2].mobility posx ETV
vector 5 Overtake.node[2].mobility posy ETV
vector 6 Overtake.node[3].mobility posx ETV
vector 7 Overtake.node[3].mobility posy ETV
vector 8 Overtake.node[0].mobility speed ETV
vector 9 Overtake.node[1].mobility speed ETV
vector 10 Overtake.node[2].mobility speed ETV
vector 11 Overtake.node[3].mobility speed ETV
vector 12 Overtake.node[0].mobility acceleration ETV
vector 13 Overtake.node[0].mobility co2emission ETV
vector 14 Overtake.node[1].mobility acceleration ETV
vector 15 Overtake.node[1].mobility co2emission ETV
vector 16 Overtake.node[2].mobility acceleration ETV
vector 17 Overtake.node[2].mobility co2emission ETV
vector 18 Overtake.node[3].mobility acceleration ETV
vector 19 Overtake.node[3].mobility co2emission ETV
vector 20 Overtake.node[0].appl distance ETV
vector 21 Overtake.node[0].appl relativeSpeed ETV
vector 22 Overtake.node[0].appl nodeId ETV
vector 23 Overtake.node[0].appl acceleration ETV
vector 24 Overtake.node[0].appl controllerAcceleration ETV
vector 25 Overtake.node[0].appl speed ETV
vector 26 Overtake.node[0].appl posx ETV
vector 27 Overtake.node[0].appl posy ETV
vector 28 Overtake.node[1].appl distance ETV
vector 29 Overtake.node[1].appl relativeSpeed ETV
vector 30 Overtake.node[1].appl nodeId ETV
vector 31 Overtake.node[1].appl acceleration ETV
vector 32 Overtake.node[1].appl controllerAcceleration ETV
vector 33 Overtake.node[1].appl speed ETV
vector 34 Overtake.node[1].appl posx ETV
vector 35 Overtake.node[1].appl posy ETV
vector 36 Overtake.node[2].appl distance ETV
vector 37 Overtake.node[2].appl relativeSpeed ETV
vector 38 Overtake.node[2].appl nodeId ETV
vector 39 Overtake.node[2].appl acceleration ETV
vector 40 Overtake.node[2].appl controllerAcceleration ETV
vector 41 Overtake.node[2].appl speed ETV
vector 42 Overtake.node[2].appl posx ETV
vector 43 Overtake.node[2].appl posy ETV
vector 44 Overtake.node[3].appl distance ETV
vector 45 Overtake.node[3].appl relativeSpeed ETV
vector 46 Overtake.node[3].appl nodeId ETV
vector 47 Overtake.node[3].appl acceleration ETV
vector 48 Overtake.node[3].appl controllerAcceleration ETV
vector 49 Overtake.node[3].appl speed ETV
vector 50 Overtake.node[3].appl posx ETV
vector 51 Overtake.node[3].appl posy ETV
vector 52 Overtake.node[1].prot leaderDelay ETV
vector 53 Overtake.node[1].prot leaderDelayId ETV
vector 54 Overtake.node[1].prot frontDelay ETV
vector 55 Overtake.node[1].prot frontDelayId ETV
vector 56 Overtake.node[0].prot nodeId ETV
vector 57 Overtake.node[0].prot busyTime ETV
vector 58 Overtake.node[0].prot collisions ETV
vector 59 Overtake.node[1].prot nodeId ETV
vector 60 Overtake.node[1].prot busyTime ETV
vector 61 Overtake.node[1].prot collisions ETV
vector 62 Overtake.node[2].prot nodeId ETV
vector 63 Overtake.node[2].prot busyTime ETV
vector 64 Overtake.node[2].prot collisions ETV
vector 65 Overtake.node[3].prot nodeId ETV
vector 66 Overtake.node[3].prot busyTime ETV
vector 67 Overtake.node[3].prot collisions ETV
48	26	0.21	0
48	176	0.31	0
48	326	0.41	0
48	476	0.51	0
48	626	0.61	0
48	776	0.71	0
48	926	0.81	0
48	1076	0.91	0
48	1230	1.01	0
48	1381	1.11	0
48	1532	1.21	0
48	1683	1.31	0
48	2046	1.41	0
48	2196	1.51	0
48	2346	1.61	0
48	2496	1.71	0
48	2646	1.81	0
48	2796	1.91	0
48	2950	2.01	0
48	3100	2.11	0
48	3250	2.21	0
48	3400	2.31	0
48	3763	2.41	0
48	3914	2.51	0
48	4064	2.61	0
48	4214	2.71	0
48	4364	2.81	0
48	4514	2.91	0
48	4668	3.01	0
48	4818	3.11	0
48	4968	3.21	0
48	5118	3.31	0
48	5269	3.41	0
48	5676	3.51	0
48	5826	3.61	0
48	5976	3.71	0
48	6126	3.81	0
48	6276	3.91	0
48	6430	4.01	0
48	6580	4.11	0
48	6730	4.21	0
48	6880	4.31	0
48	7030	4.41	0
48	7393	4.51	0
48	7544	4.61	0
48	7694	4.71	0
48	7844	4.81	0
48	7994	4.91	0
48	8148	5.01	0
48	8298	5.11	0
48	8448	5.21	0
48	8598	5.31	0
48	8748	5.41	0
48	8899	5.51	0
48	9262	5.61	0
48	9412	5.71	0
48	9562	5.81	0
48	9712	5.91	0
48	9866	6.01	0
48	10016	6.11	0
48	10166	6.21	0
48	10316	6.31	0
48	10466	6.41	0
48	10616	6.51	0
48	11023	6.61	0
48	11174	6.71	0
48	11324	6.81	0
48	11474	6.91	0
48	11628	7.01	0
48	11778	7.11	0
48	11928	7.21	0
48	12078	7.31	0
48	12228	7.41	0
48	12378	7.51	0
48	12529	7.61	0
48	12892	7.71	0
48	13042	7.81	0
48	13192	7.91	0
48	13346	8.01	0
48	13496	8.11	0
48	13646	8.21	0
48	13796	8.31	0
48	13946	8.41	0
48	14096	8.51	0
48	14246	8.61	0
48	14609	8.71	0
48	14760	8.81	0
48	14910	8.91	0
48	15064	9.01	0
48	15214	9.11	0
48	15364	9.21	0
48	15514	9.31	0
48	15664	9.41	0
48	15814	9.51	0
48	15964	9.61	0
48	16115	9.71	0
48	16522	9.81	0
48	16672	9.91	0
48	16826	10.01	0
48	16976	10.11	0
48	17126	10.21	0
48	17276	10.31	0
48	17426	10.41	0
48	17576	10.51	0
48	17726	10.61	0
48	17876	10.71	0
48	18239	10.81	0
48	18390	10.91	0
48	18544	11.01	0
48	18694	11.11	0
48	18844	11.21	0
48	18994	11.31	0
48	19144	11.41	0
48	19294	11.51	0
48	19444	11.61	0
48	19594	11.71	0
48	19745	11.81	0
48	20108	11.91	0
48	20262	12.01	0
48	20412	12.11	0
48	20562	12.21	0
48	20712	12.31	0
48	20862	12.41	0
48	21012	12.51	0
48	21162	12.61	0
48	21312	12.71	0
48	21462	12.81	0
48	21913	12.91	0
48	22068	13.01	0
48	22218	13.11	0
48	22368	13.21	0
48	22518	13.31	0
48	22668	13.41	0
48	22818	13.51	0
48	22968	13.61	0
48	23118	13.71	0
48	23268	13.81	0
48	23419	13.91	0
48	23806	14.01	0
48	23956	14.11	0
48	24106	14.21	0
48	24256	14.31	0
48	24406	14.41	0
48	24556	14.51	0
48	24706	14.61	0
48	24856	14.71	0
48	25006	14.81	0
48	25156	14.91	0
48	25567	15.01	0
48	25718	15.11	0
48	25868	15.21	0
48	26018	15.31	0
48	26168	15.41	0
48	26318	15.51	0
48	26468	15.61	0
48	26618	15.71	0
48	26768	15.81	0
48	26918	15.91	0
48	27072	16.01	0
48	27222	16.11	0
48	27372	16.21	0
48	27522	16.31	0
48	27672	16.41	0
48	27822	16.51	0
48	27972	16.61	0
48	28122	16.71	0
48	28272	16.81	0
48	28422	16.91	0
48	28576	17.01	0
48	28726	17.11	0
48	28876	17.21	0
48	29026	17.31	0
48	29176	17.41	0
48	29326	17.51	0
48	29476	17.61	0
48	29626	17.71	0
48	29776	17.81	0
48	29926	17.91	0
48	30080	18.01	0
48	30230	18.11	0
48	30380	18.21	0
48	30530	18.31	0
48	30680	18.41	0
48	30830	18.51	0
48	30980	18.61	0
48	31130	18.71	0
48	31280	18.81	0
48	31430	18.91	0
48	31584	19.01	0
48	31734	19.11	0
48	31884	19.21	0
48	32034	19.31	0
48	32184	19.41	0
48	32334	19.51	0
48	32484	19.61	0
48	32634	19.71	0
48	32784	19.81	0
48	32934	19.91	0
48	33088	20.01	0
48	33238	20.11	0
48	33388	20.21	0
48	33538	20.31	0
48	33688	20.41	0
48	33838	20.51	0
48	33988	20.61	0
48	34138	20.71	0
48	34288	20.81	0
48	34438	20.91	0
48	34592	21.01	0
48	34742	21.11	0
48	34892	21.21	0
48	35042	21.31	0
48	35192	21.41	0
48	35342	21.51	0
48	35492	21.61	0
48	35642	21.71	0
48	35792	21.81	0
48	35942	21.91	0
48	36096	22.01	0
48	36246	22.11	0
48	36396	22.21	0
48	36546	22.31	0
48	36696	22.41	0
48	36846	22.51	0
48	36996	22.61	0
48	37146	22.71	0
48	37296	22.81	0
48	37446	22.91	0
48	37600	23.01	0
48	37750	23.11	0
48	37900	23.21	0
48	38050	23.31	0
48	38200	23.41	0
48	38350	23.51	0
48	38500	23.61	0
48	38650	23.71	0
48	38800	23.81	0
48	38950	23.91	0
48	39104	24.01	0
48	39254	24.11	0
48	39404	24.21	0
48	39554	24.31	0
48	39704	24.41	0
48	39854	24.51	0
48	40004	24.61	0
48	40154	24.71	0
48	40304	24.81	0
48	40454	24.91	0
48	40608	25.01	0
48	40758	25.11	0
48	40908	25.21	0
48	41058	25.31	0
48	41208	25.41	0
48	41358	25.51	0
48	41508	25.61	0
48	41658	25.71	0
48	41808	25.81	0
48	41958	25.91	0
48	42112	26.01	0
48	42262	26.11	0
48	42412	26.21	0
48	42562	26.31	0
48	42712	26.41	0
48	42862	26.51	0
48	43012	26.61	0
48	43163	26.71	0
48	43313	26.81	0
48	43463	26.91	0
48	43617	27.01	0
48	43767	27.11	0
48	43917	27.21	0
48	44067	27.31	0
48	44217	27.41	0
48	44367	27.51	0
48	44517	27.61	0
48	44667	27.71	0
48	44817	27.81	0
48	44967	27.91	0
48	45121	28.01	0
48	45271	28.11	0
48	45421	28.21	0
48	45571	28.31	0
48	45721	28.41	0
48	45871	28.51	0
48	46021	28.61	0
48	46171	28.71	0
48	46321	28.81	0
48	46471	28.91	0
48	46625	29.01	0
48	46775	29.11	0
48	46925	29.21	0
48	47075	29.31	0
48	47225	29.41	0
48	47375	29.51	0
48	47525	29.61	0
48	47675	29.71	0
48	47825	29.81	0
48	47975	29.91	0
48	48129	30.01	0
48	48279	30.11	0
48	48429	30.21	0
48	48579	30.31	0
48	48729	30.41	0
48	48879	30.51	0
48	49029	30.61	0
48	49179	30.71	0
48	49329	30.81	0
48	49479	30.91	0
48	49633	31.01	0
48	49783	31.11	0
48	49933	31.21	0
48	50083	31.31	0
48	50233	31.41	0
48	50383	31.51	0
48	50533	31.61	0
48	50683	31.71	0
48	50833	31.81	0
48	50983	31.91	0
48	51137	32.01	0
48	51287	32.11	0
48	51437	32.21	0
48	51587	32.31	0
48	51737	32.41	0
48	51887	32.51	0
48	52037	32.61	0
48	52187	32.71	0
48	52337	32.81	0
48	52487	32.91	0
48	52641	33.01	0
48	52791	33.11	0
48	52941	33.21	0
48	53091	33.31	0
48	53241	33.41	0
48	53391	33.51	0
48	53541	33.61	0
48	53691	33.71	0
47	26	0.21	0
47	176	0.31	0
47	326	0.41	0
47	476	0.51	0
47	626	0.61	0
47	776	0.71	0
47	926	0.81	0
47	1076	0.91	0
47	1230	1.01	0
47	1381	1.11	0
47	1532	1.21	0
47	1683	1.31	0
47	2046	1.41	0
47	2196	1.51	0
47	2346	1.61	0
47	2496	1.71	0
47	2646	1.81	0
47	2796	1.91	0
47	2950	2.01	0
47	3100	2.11	0
47	3250	2.21	0
47	3400	2.31	0
47	3763	2.41	0
47	3914	2.51	0
47	4064	2.61	0
47	4214	2.71	0
47	4364	2.81	0
47	4514	2.91	0
47	4668	3.01	0
47	4818	3.11	0
47	4968	3.21	0
47	5118	3.31	0
47	5269	3.41	0
47	5676	3.51	0
47	5826	3.61	0
47	5976	3.71	0
47	6126	3.81	0
47	6276	3.91	0
47	6430	4.01	0
47	6580	4.11	0
47	6730	4.21	0
47	6880	4.31	0
47	7030	4.41	0
47	7393	4.51	0
47	7544	4.61	0
47	7694	4.71	0
47	7844	4.81	0
47	7994	4.91	0
47	8148	5.01	0
47	8298	5.11	0
47	8448	5.21	0
47	8598	5.31	0
47	8748	5.41	0
47	8899	5.51	0
47	9262	5.61	0
47	9412	5.71	0
47	9562	5.81	0
47	9712	5.91	0
47	9866	6.01	0
47	10016	6.11	0
47	10166	6.21	0
47	10316	6.31	0
47	10466	6.41	0
47	10616	6.51	0
47	11023	6.61	0
47	11174	6.71	0
47	11324	6.81	0
47	11474	6.91	0
47	11628	7.01	0
47	11778	7.11	0
47	11928	7.21	0
47	12078	7.31	0
47	12228	7.41	0
47	12378	7.51	0
47	12529	7.61	0
47	12892	7.71	0
47	13042	7.81	0
47	13192	7.91	0
47	13346	8.01	0
47	13496	8.11	0
47	13646	8.21	0
47	13796	8.31	0
47	13946	8.41	0
47	14096	8.51	0
47	14246	8.61	0
47	14609	8.71	0
47	14760	8.81	0
47	14910	8.91	0
47	15064	9.01	0
47	15214	9.11	0
47	15364	9.21	0
47	15514	9.31	0
47	15664	9.41	0
47	15814	9.51	0
47	15964	9.61	0
47	16115	9.71	0
47	16522	9.81	0
47	16672	9.91	0
47	16826	10.01	0
47	16976	10.11	0
47	17126	10.21	0
47	17276	10.31	0
47	17426	10.41	0
47	17576	10.51	0
47	17726	10.61	0
47	17876	10.71	0
47	18239	10.81	0
47	18390	10.91	0
47	18544	11.01	0
47	18694	11.11	0
47	18844	11.21	0
47	18994	11.31	0
47	19144	11.41	0
47	19294	11.51	0
47	19444	11.61	0
47	19594	11.71	0
47	19745	11.81	0
47	20108	11.91	0
47	20262	12.01	0
47	20412	12.11	0
47	20562	12.21	0
47	20712	12.31	0
47	20862	12.41	0
47	21012	12.51	0
47	21162	12.61	0
47	21312	12.71	0
47	21462	12.81	0
47	21913	12.91	0
47	22068	13.01	0
47	22218	13.11	0
47	22368	13.21	0
47	22518	13.31	0
47	22668	13.41	0
47	22818	13.51	0
47	22968	13.61	0
47	23118	13.71	0
47	23268	13.81	0
47	23419	13.91	0
47	23806	14.01	0
47	23956	14.11	0
47	24106	14.21	0
47	24256	14.31	0
47	24406	14.41	0
47	24556	14.51	0
47	24706	14.61	0
47	24856	14.71	0
47	25006	14.81	0
47	25156	14.91	0
47	25567	15.01	0
47	25718	15.11	0
47	25868	15.21	0
47	26018	15.31	0
47	26168	15.41	0
47	26318	15.51	0
47	26468	15.61	0
47	26618	15.71	0
47	26768	15.81	0
47	26918	15.91	0
47	27072	16.01	0
47	27222	16.11	0
47	27372	16.21	0
47	27522	16.31	0
47	27672	16.41	0
47	27822	16.51	0
47	27972	16.61	0
47	28122	16.71	0
47	28272	16.81	0
47	28422	16.91	0
47	28576	17.01	0
47	28726	17.11	0
47	28876	17.21	0
47	29026	17.31	0
47	29176	17.41	0
47	29326	17.51	0
47	29476	17.61	0
47	29626	17.71	0
47	29776	17.81	0
47	29926	17.91	0
47	30080	18.01	0
47	30230	18.11	0
47	30380	18.21	0
47	30530	18.31	0
47	30680	18.41	0
47	30830	18.51	0
47	30980	18.61	0
47	31130	18.71	0
47	31280	18.81	0
47	31430	18.91	0
47	31584	19.01	0
47	31734	19.11	0
47	31884	19.21	0
47	32034	19.31	0
47	32184	19.41	0
47	32334	19.51	0
47	32484	19.61	0
47	32634	19.71	0
47	32784	19.81	0
47	32934	19.91	0
47	33088	20.01	0
47	33238	20.11	0
47	33388	20.21	0
47	33538	20.31	0
47	33688	20.41	0
47	33838	20.51	0
47	33988	20.61	0
47	34138	20.71	0
47	34288	20.81	0
47	34438	20.91	0
47	34592	21.01	0
47	34742	21.11	0
47	34892	21.21	0
47	35042	21.31	0
47	35192	21.41	0
47	35342	21.51	0
47	35492	21.61	0
47	35642	21.71	0
47	35792	21.81	0
47	35942	21.91	0
47	36096	22.01	0
47	36246	22.11	0
47	36396	22.21	0
47	36546	22.31	0
47	36696	22.41	0
47	36846	22.51	0
47	36996	22.61	0
47	37146	22.71	0
47	37296	22.81	0
47	37446	22.91	0
47	37600	23.01	0
47	37750	23.11	0
47	37900	23.21	0
47	38050	23.31	0
47	38200	23.41	0
47	38350	23.51	0
47	38500	23.61	0
47	38650	23.71	0
47	38800	23.81	0
47	38950	23.91	0
47	39104	24.01	0
47	39254	24.11	0
47	39404	24.21	0
47	39554	24.31	0
47	39704	24.41	0
47	39854	24.51	0
47	40004	24.61	0
47	40154	24.71	0
47	40304	24.81	0
47	40454	24.91	0
47	40608	25.01	0
47	40758	25.11	0
47	40908	25.21	0
47	41058	25.31	0
47	41208	25.41	0
47	41358	25.51	0
47	41508	25.61	0
47	41658	25.71	0
47	41808	25.81	0
47	41958	25.91	0
47	42112	26.01	0
47	42262	26.11	0
47	42412	26.21	0
47	42562	26.31	0
47	42712	26.41	0
47	42862	26.51	0
47	43012	26.61	0
47	43163	26.71	0
47	43313	26.81	0
47	43463	26.91	0
47	43617	27.01	0
47	43767	27.11	0
47	43917	27.21	0
47	44067	27.31	0
47	44217	27.41	0
47	44367	27.51	0
47	44517	27.61	0
47	44667	27.71	0
47	44817	27.81	0
47	44967	27.91	0
47	45121	28.01	0
47	45271	28.11	0
47	45421	28.21	0
47	45571	28.31	0
47	45721	28.41	0
47	45871	28.51	0
47	46021	28.61	0
47	46171	28.71	0
47	46321	28.81	0
47	46471	28.91	0
47	46625	29.01	0
47	46775	29.11	0
47	46925	29.21	0
47	47075	29.31	0
47	47225	29.41	0
47	47375	29.51	0
47	47525	29.61	0
47	47675	29.71	0
47	47825	29.81	0
47	47975	29.91	0
47	48129	30.01	0
47	48279	30.11	0
47	48429	30.21	0
47	48579	30.31	0
47	48729	30.41	0
47	48879	30.51	0
47	49029	30.61	0
47	49179	30.71	0
47	49329	30.81	0
47	49479	30.91	0
47	49633	31.01	0
47	49783	31.11	0
47	49933	31.21	0
47	50083	31.31	0
47	50233	31.41	0
47	50383	31.51	0
47	50533	31.61	0
47	50683	31.71	0
47	50833	31.81	0
47	50983	31.91	0
47	51137	32.01	0
47	51287	32.11	0
47	51437	32.21	0
47	51587	32.31	0
47	51737	32.41	0
47	51887	32.51	0
47	52037	32.61	0
47	52187	32.71	0
47	52337	32.81	0
47	52487	32.91	0
47	52641	33.01	0
47	52791	33.11	0
47	52941	33.21	0
47	53091	33.31	0
47	53241	33.41	0
47	53391	33.51	0
47	53541	33.61	0
47	53691	33.71	0
51	26	0.21	1.6
51	176	0.31	1.6
51	326	0.41	1.6
51	476	0.51	1.6
51	626	0.61	1.6
51	776	0.71	1.6
51	926	0.81	1.6
51	1076	0.91	1.6
51	1230	1.01	1.6
51	1381	1.11	1.6
51	1532	1.21	1.6
51	1683	1.31	1.6
51	2046	1.41	1.6
51	2196	1.51	1.6
51	2346	1.61	1.6
51	2496	1.71	1.6
51	2646	1.81	1.6
51	2796	1.91	1.6
51	2950	2.01	1.6
51	3100	2.11	1.6
51	3250	2.21	1.6
51	3400	2.31	1.6
51	3763	2.41	1.6
51	3914	2.51	1.6
51	4064	2.61	1.6
51	4214	2.71	1.6
51	4364	2.81	1.6
51	4514	2.91	1.6
51	4668	3.01	1.6
51	4818	3.11	1.6
51	4968	3.21	1.6
51	5118	3.31	1.6
51	5269	3.41	1.6
51	5676	3.51	1.6
51	5826	3.61	1.6
51	5976	3.71	1.6
51	6126	3.81	1.6
51	6276	3.91	1.6
51	6430	4.01	1.6
51	6580	4.11	1.6
51	6730	4.21	1.6
51	6880	4.31	1.6
51	7030	4.41	1.6
51	7393	4.51	1.6
51	7544	4.61	1.6
51	7694	4.71	1.6
51	7844	4.81	1.6
51	7994	4.91	1.6
51	8148	5.01	1.6
51	8298	5.11	1.6
51	8448	5.21	1.6
51	8598	5.31	1.6
51	8748	5.41	1.6
51	8899	5.51	1.6
51	9262	5.61	1.6
51	9412	5.71	1.6
51	9562	5.81	1.6
51	9712	5.91	1.6
51	9866	6.01	1.6
51	10016	6.11	1.6
51	10166	6.21	1.6
51	10316	6.31	1.6
51	10466	6.41	1.6
51	10616	6.51	1.6
51	11023	6.61	1.6
51	11174	6.71	1.6
51	11324	6.81	1.6
51	11474	6.91	1.6
51	11628	7.01	1.6
51	11778	7.11	1.6
51	11928	7.21	1.6
51	12078	7.31	1.6
51	12228	7.41	1.6
51	12378	7.51	1.6
51	12529	7.61	1.6
51	12892	7.71	1.6
51	13042	7.81	1.6
51	13192	7.91	1.6
51	13346	8.01	1.6
51	13496	8.11	1.6
51	13646	8.21	1.6
51	13796	8.31	1.6
51	13946	8.41	1.6
51	14096	8.51	1.6
51	14246	8.61	1.6
51	14609	8.71	1.6
51	14760	8.81	1.6
51	14910	8.91	1.6
51	15064	9.01	1.6
51	15214	9.11	1.6
51	15364	9.21	1.6
51	15514	9.31	1.6
51	15664	9.41	1.6
51	15814	9.51	1.6
51	15964	9.61	1.6
51	16115	9.71	1.6
51	16522	9.81	1.6
51	16672	9.91	1.6
51	16826	10.01	1.6
51	16976	10.11	1.6
51	17126	10.21	1.6
51	17276	10.31	1.6
51	17426	10.41	1.6
51	17576	10.51	1.6
51	17726	10.61	1.6
51	17876	10.71	1.6
51	18239	10.81	1.6
51	18390	10.91	1.6
51	18544	11.01	1.6
51	18694	11.11	1.6
51	18844	11.21	1.6
51	18994	11.31	1.6
51	19144	11.41	1.6
51	19294	11.51	1.6
51	19444	11.61	1.6
51	19594	11.71	1.6
51	19745	11.81	1.6
51	20108	11.91	1.6
51	20262	12.01	1.6
51	20412	12.11	1.6
51	20562	12.21	1.6
51	20712	12.31	1.6
51	20862	12.41	1.6
51	21012	12.51	1.6
51	21162	12.61	1.6
51	21312	12.71	1.6
51	21462	12.81	1.6
51	21913	12.91	1.6
51	22068	13.01	1.6
51	22218	13.11	1.6
51	22368	13.21	1.6
51	22518	13.31	1.6
51	22668	13.41	1.6
51	22818	13.51	1.6
51	22968	13.61	1.6
51	23118	13.71	1.6
51	23268	13.81	1.6
51	23419	13.91	1.6
51	23806	14.01	1.6
51	23956	14.11	1.6
51	24106	14.21	1.6
51	24256	14.31	1.6
51	24406	14.41	1.6
51	24556	14.51	1.6
51	24706	14.61	1.6
51	24856	14.71	1.6
51	25006	14.81	1.6
51	25156	14.91	1.6
51	25567	15.01	1.6
51	25718	15.11	1.6
51	25868	15.21	1.6
51	26018	15.31	1.6
51	26168	15.41	1.6
51	26318	15.51	1.6
51	26468	15.61	1.6
51	26618	15.71	1.6
51	26768	15.81	1.6
51	26918	15.91	1.6
51	27072	16.01	1.6
51	27222	16.11	1.6
51	27372	16.21	1.6
51	27522	16.31	1.6
51	27672	16.41	1.6
51	27822	16.51	1.6
51	27972	16.61	1.6
51	28122	16.71	1.6
51	28272	16.81	1.6
51	28422	16.91	1.6
51	28576	17.01	1.6
51	28726	17.11	1.6
51	28876	17.21	1.6
51	29026	17.31	1.6
51	29176	17.41	1.6
51	29326	17.51	1.6
51	29476	17.61	1.6
51	29626	17.71	1.6
51	29776	17.81	1.6
51	29926	17.91	1.6
51	30080	18.01	1.6
51	30230	18.11	1.6
51	30380	18.21	1.6
51	30530	18.31	1.6
51	30680	18.41	1.6
51	30830	18.51	1.6
51	30980	18.61	1.6
51	31130	18.71	1.6
51	31280	18.81	1.6
51	31430	18.91	1.6
51	31584	19.01	1.6
51	31734	19.11	1.6
51	31884	19.21	1.6
51	32034	19.31	1.6
51	32184	19.41	1.6
51	32334	19.51	1.6
51	32484	19.61	1.6
51	32634	19.71	1.6
51	32784	19.81	1.6
51	32934	19.91	1.6
51	33088	20.01	1.6
51	33238	20.11	1.6
51	33388	20.21	1.6
51	33538	20.31	1.6
51	33688	20.41	1.6
51	33838	20.51	1.6
51	33988	20.61	1.6
51	34138	20.71	1.6
51	34288	20.81	1.6
51	34438	20.91	1.6
51	34592	21.01	1.6
51	34742	21.11	1.6
51	34892	21.21	1.6
51	35042	21.31	1.6
51	35192	21.41	1.6
51	35342	21.51	1.6
51	35492	21.61	1.6
51	35642	21.71	1.6
51	35792	21.81	1.6
51	35942	21.91	1.6
51	36096	22.01	1.6
51	36246	22.11	1.6
51	36396	22.21	1.6
51	36546	22.31	1.6
51	36696	22.41	1.6
51	36846	22.51	1.6
51	36996	22.61	1.6
51	37146	22.71	1.6
51	37296	22.81	1.6
51	37446	22.91	1.6
51	37600	23.01	1.6
51	37750	23.11	1.6
51	37900	23.21	1.6
51	38050	23.31	1.6
51	38200	23.41	1.6
51	38350	23.51	1.6
51	38500	23.61	1.6
51	38650	23.71	1.6
51	38800	23.81	1.6
51	38950	23.91	1.6
51	39104	24.01	1.6
51	39254	24.11	1.6
51	39404	24.21	1.6
51	39554	24.31	1.6
51	39704	24.41	1.6
51	39854	24.51	1.6
51	40004	24.61	1.6
51	40154	24.71	1.6
51	40304	24.81	1.6
51	40454	24.91	1.6
51	40608	25.01	1.6
51	40758	25.11	1.6
51	40908	25.21	1.6
51	41058	25.31	1.6
51	41208	25.41	1.6
51	41358	25.51	1.6
51	41508	25.61	1.6
51	41658	25.71	1.6
51	41808	25.81	1.6
51	41958	25.91	1.6
51	42112	26.01	1.6
51	42262	26.11	1.6
51	42412	26.21	1.6
51	42562	26.31	1.6
51	42712	26.41	1.6
51	42862	26.51	1.6
51	43012	26.61	1.6
51	43163	26.71	1.6
51	43313	26.81	1.6
51	43463	26.91	1.6
51	43617	27.01	1.6
51	43767	27.11	1.6
51	43917	27.21	1.6
51	44067	27.31	1.6
51	44217	27.41	1.6
51	44367	27.51	1.6
51	44517	27.61	1.6
51	44667	27.71	1.6
51	44817	27.81	1.6
51	44967	27.91	1.6
51	45121	28.01	1.6
51	45271	28.11	1.6
51	45421	28.21	1.6
51	45571	28.31	1.6
51	45721	28.41	1.6
51	45871	28.51	1.6
51	46021	28.61	1.6
51	46171	28.71	1.6
51	46321	28.81	1.6
51	46471	28.91	1.6
51	46625	29.01	1.6
51	46775	29.11	1.6
51	46925	29.21	1.6
51	47075	29.31	1.6
51	47225	29.41	1.6
51	47375	29.51	1.6
51	47525	29.61	1.6
51	47675	29.71	1.6
51	47825	29.81	1.6
51	47975	29.91	1.6
51	48129	30.01	1.6
51	48279	30.11	1.6
51	48429	30.21	1.6
51	48579	30.31	1.6
51	48729	30.41	1.6
51	48879	30.51	1.6
51	49029	30.61	1.6
51	49179	30.71	1.6
51	49329	30.81	1.6
51	49479	30.91	1.6
51	49633	31.01	1.6
51	49783	31.11	1.6
51	49933	31.21	1.6
51	50083	31.31	1.6
51	50233	31.41	1.6
51	50383	31.51	1.6
51	50533	31.61	1.6
51	50683	31.71	1.6
51	50833	31.81	1.6
51	50983	31.91	1.6
51	51137	32.01	1.6
51	51287	32.11	1.6
51	51437	32.21	1.6
51	51587	32.31	1.6
51	51737	32.41	1.6
51	51887	32.51	1.6
51	52037	32.61	1.6
51	52187	32.71	1.6
51	52337	32.81	1.6
51	52487	32.91	1.6
51	52641	33.01	1.6
51	52791	33.11	1.6
51	52941	33.21	1.6
51	53091	33.31	1.6
51	53241	33.41	1.6
51	53391	33.51	1.6
51	53541	33.61	1.6
51	53691	33.71	1.6
50	26	0.21	502.65
50	176	0.31	501.15
50	326	0.41	499.65
50	476	0.51	498.15
50	626	0.61	496.65
50	776	0.71	495.15
50	926	0.81	493.65
50	1076	0.91	492.15
50	1230	1.01	490.65
50	1381	1.11	489.15
50	1532	1.21	487.65
50	1683	1.31	486.15
50	2046	1.41	484.65
50	2196	1.51	483.15
50	2346	1.61	481.65
50	2496	1.71	480.15
50	2646	1.81	478.65
50	2796	1.91	477.15
50	2950	2.01	475.65
50	3100	2.11	474.15
50	3250	2.21	472.65
50	3400	2.31	471.15
50	3763	2.41	469.65
50	3914	2.51	468.15
50	4064	2.61	466.65
50	4214	2.71	465.15
50	4364	2.81	463.65
50	4514	2.91	462.15
50	4668	3.01	460.65
50	4818	3.11	459.15
50	4968	3.21	457.65
50	5118	3.31	456.15
50	5269	3.41	454.65
50	5676	3.51	453.15
50	5826	3.61	451.65
50	5976	3.71	450.15
50	6126	3.81	448.65
50	6276	3.91	447.15
50	6430	4.01	445.65
50	6580	4.11	444.15
50	6730	4.21	442.65
50	6880	4.31	441.15
50	7030	4.41	439.65
50	7393	4.51	438.15
50	7544	4.61	436.65
50	7694	4.71	435.15
50	7844	4.81	433.65
50	7994	4.91	432.15
50	8148	5.01	430.65
50	8298	5.11	429.15
50	8448	5.21	427.65
50	8598	5.31	426.15
50	8748	5.41	424.65
50	8899	5.51	423.15
50	9262	5.61	421.65
50	9412	5.71	420.15
50	9562	5.81	418.65
50	9712	5.91	417.15
50	9866	6.01	415.65
50	10016	6.11	414.15
50	10166	6.21	412.65
50	10316	6.31	411.15
50	10466	6.41	409.65
50	10616	6.51	408.15
50	11023	6.61	406.65
50	11174	6.71	405.15
50	11324	6.81	403.65
50	11474	6.91	402.15
50	11628	7.01	400.65
50	11778	7.11	399.15
50	11928	7.21	397.65
50	12078	7.31	396.15
50	12228	7.41	394.65
50	12378	7.51	393.15
50	12529	7.61	391.65
50	12892	7.71	390.15
50	13042	7.81	388.65
50	13192	7.91	387.15
50	13346	8.01	385.65
50	13496	8.11	384.15
50	13646	8.21	382.65
50	13796	8.31	381.15
50	13946	8.41	379.65
50	14096	8.51	378.15
50	14246	8.61	376.65
50	14609	8.71	375.15
50	14760	8.81	373.65
50	14910	8.91	372.15
50	15064	9.01	370.65
50	15214	9.11	369.15
50	15364	9.21	367.65
50	15514	9.31	366.15
50	15664	9.41	364.65
50	15814	9.51	363.15
50	15964	9.61	361.65
50	16115	9.71	360.15
50	16522	9.81	358.65
50	16672	9.91	357.15
50	16826	10.01	355.65
50	16976	10.11	354.15
50	17126	10.21	352.65
50	17276	10.31	351.15
50	17426	10.41	349.65
50	17576	10.51	348.15
50	17726	10.61	346.65
50	17876	10.71	345.15
50	18239	10.81	343.65
50	18390	10.91	342.15
50	18544	11.01	340.65
50	18694	11.11	339.15
50	18844	11.21	337.65
50	18994	11.31	336.15
50	19144	11.41	334.65
50	19294	11.51	333.15
50	19444	11.61	331.65
50	19594	11.71	330.15
50	19745	11.81	328.65
50	20108	11.91	327.15
50	20262	12.01	325.65
50	20412	12.11	324.15
50	20562	12.21	322.65
50	20712	12.31	321.15
50	20862	12.41	319.65
50	21012	12.51	318.15
50	21162	12.61	316.65
50	21312	12.71	315.15
50	21462	12.81	313.65
50	21913	12.91	312.15
50	22068	13.01	310.65
50	22218	13.11	309.15
50	22368	13.21	307.65
50	22518	13.31	306.15
50	22668	13.41	304.65
50	22818	13.51	303.15
50	22968	13.61	301.65
50	23118	13.71	300.15
50	23268	13.81	298.65
50	23419	13.91	297.15
50	23806	14.01	295.65
50	23956	14.11	294.15
50	24106	14.21	292.65
50	24256	14.31	291.15
50	24406	14.41	289.65
50	24556	14.51	288.15
50	24706	14.61	286.65
50	24856	14.71	285.15
50	25006	14.81	283.65
50	25156	14.91	282.15
50	25567	15.01	280.65
50	25718	15.11	279.15
50	25868	15.21	277.65
50	26018	15.31	276.15
50	26168	15.41	274.65
50	26318	15.51	273.15
50	26468	15.61	271.65
50	26618	15.71	270.15
50	26768	15.81	268.65
50	26918	15.91	267.15
50	27072	16.01	265.65
50	27222	16.11	264.15
50	27372	16.21	262.65
50	27522	16.31	261.15
50	27672	16.41	259.65
50	27822	16.51	258.15
50	27972	16.61	256.65
50	28122	16.71	255.15
50	28272	16.81	253.65
50	28422	16.91	252.15
50	28576	17.01	250.65
50	28726	17.11	249.15
50	28876	17.21	247.65
50	29026	17.31	246.15
50	29176	17.41	244.65
50	29326	17.51	243.15
50	29476	17.61	241.65
50	29626	17.71	240.15
50	29776	17.81	238.65
50	29926	17.91	237.15
50	30080	18.01	235.65
50	30230	18.11	234.15
50	30380	18.21	232.65
50	30530	18.31	231.15
50	30680	18.41	229.65
50	30830	18.51	228.15
50	30980	18.61	226.65
50	31130	18.71	225.15
50	31280	18.81	223.65
50	31430	18.91	222.15
50	31584	19.01	220.65
50	31734	19.11	219.15
50	31884	19.21	217.65
50	32034	19.31	216.15
50	32184	19.41	214.65
50	32334	19.51	213.15
50	32484	19.61	211.65
50	32634	19.71	210.15
50	32784	19.81	208.65
50	32934	19.91	207.15
50	33088	20.01	205.65
50	33238	20.11	204.15
50	33388	20.21	202.65
50	33538	20.31	201.15
50	33688	20.41	199.65
50	33838	20.51	198.15
50	33988	20.61	196.65
50	34138	20.71	195.15
50	34288	20.81	193.65
50	34438	20.91	192.15
50	34592	21.01	190.65
50	34742	21.11	189.15
50	34892	21.21	187.65
50	35042	21.31	186.15
50	35192	21.41	184.65
50	35342	21.51	183.15
50	35492	21.61	181.65
50	35642	21.71	180.15
50	35792	21.81	178.65
50	35942	21.91	177.15
50	36096	22.01	175.65
50	36246	22.11	174.15
50	36396	22.21	172.65
50	36546	22.31	171.15
50	36696	22.41	169.65
50	36846	22.51	168.15
50	36996	22.61	166.65
50	37146	22.71	165.15
50	37296	22.81	163.65
50	37446	22.91	162.15
50	37600	23.01	160.65
50	37750	23.11	159.15
50	37900	23.21	157.65
50	38050	23.31	156.15
50	38200	23.41	154.65
50	38350	23.51	153.15
50	38500	23.61	151.65
50	38650	23.71	150.15
50	38800	23.81	148.65
50	38950	23.91	147.15
50	39104	24.01	145.65
50	39254	24.11	144.15
50	39404	24.21	142.65
50	39554	24.31	141.15
50	39704	24.41	139.65
50	39854	24.51	138.15
50	40004	24.61	136.65
50	40154	24.71	135.15
50	40304	24.81	133.65
50	40454	24.91	132.15
50	40608	25.01	130.65
50	40758	25.11	129.15
50	40908	25.21	127.65
50	41058	25.31	126.15
50	41208	25.41	124.65
50	41358	25.51	123.15
50	41508	25.61	121.65
50	41658	25.71	120.15
50	41808	25.81	118.65
50	41958	25.91	117.15
50	42112	26.01	115.65
50	42262	26.11	114.15
50	42412	26.21	112.65
50	42562	26.31	111.15
50	42712	26.41	109.65
50	42862	26.51	108.15
50	43012	26.61	106.65
50	43163	26.71	105.15
50	43313	26.81	103.65
50	43463	26.91	102.15
50	43617	27.01	100.65
50	43767	27.11	99.15
50	43917	27.21	97.65
50	44067	27.31	96.15
50	44217	27.41	94.65
50	44367	27.51	93.15
50	44517	27.61	91.65
50	44667	27.71	90.15
50	44817	27.81	88.65
50	44967	27.91	87.15
50	45121	28.01	85.65
50	45271	28.11	84.15
50	45421	28.21	82.65
50	45571	28.31	81.15
50	45721	28.41	79.65
50	45871	28.51	78.15
50	46021	28.61	76.65
50	46171	28.71	75.15
50	46321	28.81	73.65
50	46471	28.91	72.15
50	46625	29.01	70.65
50	46775	29.11	69.15
50	46925	29.21	67.65
50	47075	29.31	66.15
50	47225	29.41	64.65
50	47375	29.51	63.15
50	47525	29.61	61.65
50	47675	29.71	60.15
50	47825	29.81	58.65
50	47975	29.91	57.15
50	48129	30.01	55.65
50	48279	30.11	54.15
50	48429	30.21	52.65
50	48579	30.31	51.15
50	48729	30.41	49.65
50	48879	30.51	48.15
50	49029	30.61	46.65
50	49179	30.71	45.15
50	49329	30.81	43.65
50	49479	30.91	42.15
50	49633	31.01	40.65
50	49783	31.11	39.15
50	49933	31.21	37.65
50	50083	31.31	36.15
50	50233	31.41	34.65
50	50383	31.51	33.15
50	50533	31.61	31.65
50	50683	31.71	30.15
50	50833	31.81	28.65
50	50983	31.91	27.15
50	51137	32.01	25.65
50	51287	32.11	24.15
50	51437	32.21	22.65
50	51587	32.31	21.15
50	51737	32.41	19.65
50	51887	32.51	18.15
50	52037	32.61	16.65
50	52187	32.71	15.15
50	52337	32.81	13.65
50	52487	32.91	12.15
50	52641	33.01	10.65
50	52791	33.11	9.15
50	52941	33.21	7.65
50	53091	33.31	6.15
50	53241	33.41	4.65
50	53391	33.51	3.15
50	53541	33.61	1.65
50	53691	33.71	0.15
49	26	0.21	15
49	176	0.31	15
49	326	0.41	15
49	476	0.51	15
49	626	0.61	15
49	776	0.71	15
49	926	0.81	15
49	1076	0.91	15
49	1230	1.01	15
49	1381	1.11	15
49	1532	1.21	15
49	1683	1.31	15
49	2046	1.41	15
49	2196	1.51	15
49	2346	1.61	15
49	2496	1.71	15
49	2646	1.81	15
49	2796	1.91	15
49	2950	2.01	15
49	3100	2.11	15
49	3250	2.21	15
49	3400	2.31	15
49	3763	2.41	15
49	3914	2.51	15
49	4064	2.61	15
49	4214	2.71	15
49	4364	2.81	15
49	4514	2.91	15
49	4668	3.01	15
49	4818	3.11	15
49	4968	3.21	15
49	5118	3.31	15
49	5269	3.41	15
49	5676	3.51	15
49	5826	3.61	15
49	5976	3.71	15
49	6126	3.81	15
49	6276	3.91	15
49	6430	4.01	15
49	6580	4.11	15
49	6730	4.21	15
49	6880	4.31	15
49	7030	4.41	15
49	7393	4.51	15
49	7544	4.61	15
49	7694	4.71	15
49	7844	4.81	15
49	7994	4.91	15
49	8148	5.01	15
49	8298	5.11	15
49	8448	5.21	15
49	8598	5.31	15
49	8748	5.41	15
49	8899	5.51	15
49	9262	5.61	15
49	9412	5.71	15
49	9562	5.81	15
49	9712	5.91	15
49	9866	6.01	15
49	10016	6.11	15
49	10166	6.21	15
49	10316	6.31	15
49	10466	6.41	15
49	10616	6.51	15
49	11023	6.61	15
49	11174	6.71	15
49	11324	6.81	15
49	11474	6.91	15
49	11628	7.01	15
49	11778	7.11	15
49	11928	7.21	15
49	12078	7.31	15
49	12228	7.41	15
49	12378	7.51	15
49	12529	7.61	15
49	12892	7.71	15
49	13042	7.81	15
49	13192	7.91	15
49	13346	8.01	15
49	13496	8.11	15
49	13646	8.21	15
49	13796	8.31	15
49	13946	8.41	15
49	14096	8.51	15
49	14246	8.61	15
49	14609	8.71	15
49	14760	8.81	15
49	14910	8.91	15
49	15064	9.01	15
49	15214	9.11	15
49	15364	9.21	15
49	15514	9.31	15
49	15664	9.41	15
49	15814	9.51	15
49	15964	9.61	15
49	16115	9.71	15
49	16522	9.81	15
49	16672	9.91	15
49	16826	10.01	15
49	16976	10.11	15
49	17126	10.21	15
49	17276	10.31	15
49	17426	10.41	15
49	17576	10.51	15
49	17726	10.61	15
49	17876	10.71	15
49	18239	10.81	15
49	18390	10.91	15
49	18544	11.01	15
49	18694	11.11	15
49	18844	11.21	15
49	18994	11.31	15
49	19144	11.41	15
49	19294	11.51	15
49	19444	11.61	15
49	19594	11.71	15
49	19745	11.81	15
49	20108	11.91	15
49	20262	12.01	15
49	20412	12.11	15
49	20562	12.21	15
49	20712	12.31	15
49	20862	12.41	15
49	21012	12.51	15
49	21162	12.61	15
49	21312	12.71	15
49	21462	12.81	15
49	21913	12.91	15
49	22068	13.01	15
49	22218	13.11	15
49	22368	13.21	15
49	22518	13.31	15
49	22668	13.41	15
49	22818	13.51	15
49	22968	13.61	15
49	23118	13.71	15
49	23268	13.81	15
49	23419	13.91	15
49	23806	14.01	15
49	23956	14.11	15
49	24106	14.21	15
49	24256	14.31	15
49	24406	14.41	15
49	24556	14.51	15
49	24706	14.61	15
49	24856	14.71	15
49	25006	14.81	15
49	25156	14.91	15
49	25567	15.01	15
49	25718	15.11	15
49	25868	15.21	15
49	26018	15.31	15
49	26168	15.41	15
49	26318	15.51	15
49	26468	15.61	15
49	26618	15.71	15
49	26768	15.81	15
49	26918	15.91	15
49	27072	16.01	15
49	27222	16.11	15
49	27372	16.21	15
49	27522	16.31	15
49	27672	16.41	15
49	27822	16.51	15
49	27972	16.61	15
49	28122	16.71	15
49	28272	16.81	15
49	28422	16.91	15
49	28576	17.01	15
49	28726	17.11	15
49	28876	17.21	15
49	29026	17.31	15
49	29176	17.41	15
49	29326	17.51	15
49	29476	17.61	15
49	29626	17.71	15
49	29776	17.81	15
49	29926	17.91	15
49	30080	18.01	15
49	30230	18.11	15
49	30380	18.21	15
49	30530	18.31	15
49	30680	18.41	15
49	30830	18.51	15
49	30980	18.61	15
49	31130	18.71	15
49	31280	18.81	15
49	31430	18.91	15
49	31584	19.01	15
49	31734	19.11	15
49	31884	19.21	15
49	32034	19.31	15
49	32184	19.41	15
49	32334	19.51	15
49	32484	19.61	15
49	32634	19.71	15
49	32784	19.81	15
49	32934	19.91	15
49	33088	20.01	15
49	33238	20.11	15
49	33388	20.21	15
49	33538	20.31	15
49	33688	20.41	15
49	33838	20.51	15
49	33988	20.61	15
49	34138	20.71	15
49	34288	20.81	15
49	34438	20.91	15
49	34592	21.01	15
49	34742	21.11	15
49	34892	21.21	15
49	35042	21.31	15
49	35192	21.41	15
49	35342	21.51	15
49	35492	21.61	15
49	35642	21.71	15
49	35792	21.81	15
49	35942	21.91	15
49	36096	22.01	15
49	36246	22.11	15
49	36396	22.21	15
49	36546	22.31	15
49	36696	22.41	15
49	36846	22.51	15
49	36996	22.61	15
49	37146	22.71	15
49	37296	22.81	15
49	37446	22.91	15
49	37600	23.01	15
49	37750	23.11	15
49	37900	23.21	15
49	38050	23.31	15
49	38200	23.41	15
49	38350	23.51	15
49	38500	23.61	15
49	38650	23.71	15
49	38800	23.81	15
49	38950	23.91	15
49	39104	24.01	15
49	39254	24.11	15
49	39404	24.21	15
49	39554	24.31	15
49	39704	24.41	15
49	39854	24.51	15
49	40004	24.61	15
49	40154	24.71	15
49	40304	24.81	15
49	40454	24.91	15
49	40608	25.01	15
49	40758	25.11	15
49	40908	25.21	15
49	41058	25.31	15
49	41208	25.41	15
49	41358	25.51	15
49	41508	25.61	15
49	41658	25.71	15
49	41808	25.81	15
49	41958	25.91	15
49	42112	26.01	15
49	42262	26.11	15
49	42412	26.21	15
49	42562	26.31	15
49	42712	26.41	15
49	42862	26.51	15
49	43012	26.61	15
49	43163	26.71	15
49	43313	26.81	15
49	43463	26.91	15
49	43617	27.01	15
49	43767	27.11	15
49	43917	27.21	15
49	44067	27.31	15
49	44217	27.41	15
49	44367	27.51	15
49	44517	27.61	15
49	44667	27.71	15
49	44817	27.81	15
49	44967	27.91	15
49	45121	28.01	15
49	45271	28.11	15
49	45421	28.21	15
49	45571	28.31	15
49	45721	28.41	15
49	45871	28.51	15
49	46021	28.61	15
49	46171	28.71	15
49	46321	28.81	15
49	46471	28.91	15
49	46625	29.01	15
49	46775	29.11	15
49	46925	29.21	15
49	47075	29.31	15
49	47225	29.41	15
49	47375	29.51	15
49	47525	29.61	15
49	47675	29.71	15
49	47825	29.81	15
49	47975	29.91	15
49	48129	30.01	15
49	48279	30.11	15
49	48429	30.21	15
49	48579	30.31	15
49	48729	30.41	15
49	48879	30.51	15
49	49029	30.61	15
49	49179	30.71	15
49	49329	30.81	15
49	49479	30.91	15
49	49633	31.01	15
49	49783	31.11	15
49	49933	31.21	15
49	50083	31.31	15
49	50233	31.41	15
49	50383	31.51	15
49	50533	31.61	15
49	50683	31.71	15
49	50833	31.81	15
49	50983	31.91	15
49	51137	32.01	15
49	51287	32.11	15
49	51437	32.21	15
49	51587	32.31	15
49	51737	32.41	15
49	51887	32.51	15
49	52037	32.61	15
49	52187	32.71	15
49	52337	32.81	15
49	52487	32.91	15
49	52641	33.01	15
49	52791	33.11	15
49	52941	33.21	15
49	53091	33.31	15
49	53241	33.41	15
49	53391	33.51	15
49	53541	33.61	15
49	53691	33.71	15
45	26	0.21	0
45	176	0.31	0
45	326	0.41	0
45	476	0.51	0
45	626	0.61	0
45	776	0.71	0
45	926	0.81	0
45	1076	0.91	0
45	1230	1.01	0
45	1381	1.11	0
45	1532	1.21	0
45	1683	1.31	0
45	2046	1.41	0
45	2196	1.51	0
45	2346	1.61	0
45	2496	1.71	0
45	2646	1.81	0
45	2796	1.91	0
45	2950	2.01	0
45	3100	2.11	0
45	3250	2.21	0
45	3400	2.31	0
45	3763	2.41	0
45	3914	2.51	0
45	4064	2.61	0
45	4214	2.71	0
45	4364	2.81	0
45	4514	2.91	0
45	4668	3.01	0
45	4818	3.11	0
45	4968	3.21	0
45	5118	3.31	0
45	5269	3.41	0
45	5676	3.51	0
45	5826	3.61	0
45	5976	3.71	0
45	6126	3.81	0
45	6276	3.91	0
45	6430	4.01	0
45	6580	4.11	0
45	6730	4.21	0
45	6880	4.31	0
45	7030	4.41	0
45	7393	4.51	0
45	7544	4.61	0
45	7694	4.71	0
45	7844	4.81	0
45	7994	4.91	0
45	8148	5.01	0
45	8298	5.11	0
45	8448	5.21	0
45	8598	5.31	0
45	8748	5.41	0
45	8899	5.51	0
45	9262	5.61	0
45	9412	5.71	0
45	9562	5.81	0
45	9712	5.91	0
45	9866	6.01	0
45	10016	6.11	0
45	10166	6.21	0
45	10316	6.31	0
45	10466	6.41	0
45	10616	6.51	0
45	11023	6.61	0
45	11174	6.71	0
45	11324	6.81	0
45	11474	6.91	0
45	11628	7.01	0
45	11778	7.11	0
45	11928	7.21	0
45	12078	7.31	0
45	12228	7.41	0
45	12378	7.51	0
45	12529	7.61	0
45	12892	7.71	0
45	13042	7.81	0
45	13192	7.91	0
45	13346	8.01	0
45	13496	8.11	0
45	13646	8.21	0
45	13796	8.31	0
45	13946	8.41	0
45	14096	8.51	0
45	14246	8.61	0
45	14609	8.71	0
45	14760	8.81	0
45	14910	8.91	0
45	15064	9.01	0
45	15214	9.11	0
45	15364	9.21	0
45	15514	9.31	0
45	15664	9.41	0
45	15814	9.51	0
45	15964	9.61	0
45	16115	9.71	0
45	16522	9.81	0
45	16672	9.91	0
45	16826	10.01	0
45	16976	10.11	0
45	17126	10.21	0
45	17276	10.31	0
45	17426	10.41	0
45	17576	10.51	0
45	17726	10.61	0
45	17876	10.71	0
45	18239	10.81	0
45	18390	10.91	0
45	18544	11.01	0
45	18694	11.11	0
45	18844	11.21	0
45	18994	11.31	0
45	19144	11.41	0
45	19294	11.51	0
45	19444	11.61	0
45	19594	11.71	0
45	19745	11.81	0
45	20108	11.91	0
45	20262	12.01	0
45	20412	12.11	0
45	20562	12.21	0
45	20712	12.31	0
45	20862	12.41	0
45	21012	12.51	0
45	21162	12.61	0
45	21312	12.71	0
45	21462	12.81	0
45	21913	12.91	0
45	22068	13.01	0
45	22218	13.11	0
45	22368	13.21	0
45	22518	13.31	0
45	22668	13.41	0
45	22818	13.51	0
45	22968	13.61	0
45	23118	13.71	0
45	23268	13.81	0
45	23419	13.91	0
45	23806	14.01	0
45	23956	14.11	0
45	24106	14.21	0
45	24256	14.31	0
45	24406	14.41	0
45	24556	14.51	0
45	24706	14.61	0
45	24856	14.71	0
45	25006	14.81	0
45	25156	14.91	0
45	25567	15.01	0
45	25718	15.11	0
45	25868	15.21	0
45	26018	15.31	0
45	26168	15.41	0
45	26318	15.51	0
45	26468	15.61	0
45	26618	15.71	0
45	26768	15.81	0
45	26918	15.91	0
45	27072	16.01	0
45	27222	16.11	0
45	27372	16.21	0
45	27522	16.31	0
45	27672	16.41	0
45	27822	16.51	0
45	27972	16.61	0
45	28122	16.71	0
45	28272	16.81	0
45	28422	16.91	0
45	28576	17.01	0
45	28726	17.11	0
45	28876	17.21	0
45	29026	17.31	0
45	29176	17.41	0
45	29326	17.51	0
45	29476	17.61	0
45	29626	17.71	0
45	29776	17.81	0
45	29926	17.91	0
45	30080	18.01	0
45	30230	18.11	0
45	30380	18.21	0
45	30530	18.31	0
45	30680	18.41	0
45	30830	18.51	0
45	30980	18.61	0
45	31130	18.71	0
45	31280	18.81	0
45	31430	18.91	0
45	31584	19.01	0
45	31734	19.11	0
45	31884	19.21	0
45	32034	19.31	0
45	32184	19.41	0
45	32334	19.51	0
45	32484	19.61	0
45	32634	19.71	0
45	32784	19.81	0
45	32934	19.91	0
45	33088	20.01	0
45	33238	20.11	0
45	33388	20.21	0
45	33538	20.31	0
45	33688	20.41	0
45	33838	20.51	0
45	33988	20.61	0
45	34138	20.71	0
45	34288	20.81	0
45	34438	20.91	0
45	34592	21.01	0
45	34742	21.11	0
45	34892	21.21	0
45	35042	21.31	0
45	35192	21.41	0
45	35342	21.51	0
45	35492	21.61	0
45	35642	21.71	0
45	35792	21.81	0
45	35942	21.91	0
45	36096	22.01	0
45	36246	22.11	0
45	36396	22.21	0
45	36546	22.31	0
45	36696	22.41	0
45	36846	22.51	0
45	36996	22.61	0
45	37146	22.71	0
45	37296	22.81	0
45	37446	22.91	0
45	37600	23.01	0
45	37750	23.11	0
45	37900	23.21	0
45	38050	23.31	0
45	38200	23.41	0
45	38350	23.51	0
45	38500	23.61	0
45	38650	23.71	0
45	38800	23.81	0
45	38950	23.91	0
45	39104	24.01	0
45	39254	24.11	0
45	39404	24.21	0
45	39554	24.31	0
45	39704	24.41	0
45	39854	24.51	0
45	40004	24.61	0
45	40154	24.71	0
45	40304	24.81	0
45	40454	24.91	0
45	40608	25.01	0
45	40758	25.11	0
45	40908	25.21	0
45	41058	25.31	0
45	41208	25.41	0
45	41358	25.51	0
45	41508	25.61	0
45	41658	25.71	0
45	41808	25.81	0
45	41958	25.91	0
45	42112	26.01	0
45	42262	26.11	0
45	42412	26.21	0
45	42562	26.31	0
45	42712	26.41	0
45	42862	26.51	0
45	43012	26.61	0
45	43163	26.71	0
45	43313	26.81	0
45	43463	26.91	0
45	43617	27.01	0
45	43767	27.11	0
45	43917	27.21	0
45	44067	27.31	0
45	44217	27.41	0
45	44367	27.51	0
45	44517	27.61	0
45	44667	27.71	0
45	44817	27.81	0
45	44967	27.91	0
45	45121	28.01	0
45	45271	28.11	0
45	45421	28.21	0
45	45571	28.31	0
45	45721	28.41	0
45	45871	28.51	0
45	46021	28.61	0
45	46171	28.71	0
45	46321	28.81	0
45	46471	28.91	0
45	46625	29.01	0
45	46775	29.11	0
45	46925	29.21	0
45	47075	29.31	0
45	47225	29.41	0
45	47375	29.51	0
45	47525	29.61	0
45	47675	29.71	0
45	47825	29.81	0
45	47975	29.91	0
45	48129	30.01	0
45	48279	30.11	0
45	48429	30.21	0
45	48579	30.31	0
45	48729	30.41	0
45	48879	30.51	0
45	49029	30.61	0
45	49179	30.71	0
45	49329	30.81	0
45	49479	30.91	0
45	49633	31.01	0
45	49783	31.11	0
45	49933	31.21	0
45	50083	31.31	0
45	50233	31.41	0
45	50383	31.51	0
45	50533	31.61	0
45	50683	31.71	0
45	50833	31.81	0
45	50983	31.91	0
45	51137	32.01	0
45	51287	32.11	0
45	51437	32.21	0
45	51587	32.31	0
45	51737	32.41	0
45	51887	32.51	0
45	52037	32.61	0
45	52187	32.71	0
45	52337	32.81	0
45	52487	32.91	0
45	52641	33.01	0
45	52791	33.11	0
45	52941	33.21	0
45	53091	33.31	0
45	53241	33.41	0
45	53391	33.51	0
45	53541	33.61	0
45	53691	33.71	0
44	26	0.21	-1
44	176	0.31	-1
44	326	0.41	-1
44	476	0.51	-1
44	626	0.61	-1
44	776	0.71	-1
44	926	0.81	-1
44	1076	0.91	-1
44	1230	1.01	-1
44	1381	1.11	-1
44	1532	1.21	-1
44	1683	1.31	-1
44	2046	1.41	-1
44	2196	1.51	-1
44	2346	1.61	-1
44	2496	1.71	-1
44	2646	1.81	-1
44	2796	1.91	-1
44	2950	2.01	-1
44	3100	2.11	-1
44	3250	2.21	-1
44	3400	2.31	-1
44	3763	2.41	-1
44	3914	2.51	-1
44	4064	2.61	-1
44	4214	2.71	-1
44	4364	2.81	-1
44	4514	2.91	-1
44	4668	3.01	-1
44	4818	3.11	-1
44	4968	3.21	-1
44	5118	3.31	-1
44	5269	3.41	-1
44	5676	3.51	-1
44	5826	3.61	-1
44	5976	3.71	-1
44	6126	3.81	-1
44	6276	3.91	-1
44	6430	4.01	-1
44	6580	4.11	-1
44	6730	4.21	-1
44	6880	4.31	-1
44	7030	4.41	-1
44	7393	4.51	-1
44	7544	4.61	-1
44	7694	4.71	-1
44	7844	4.81	-1
44	7994	4.91	-1
44	8148	5.01	-1
44	8298	5.11	-1
44	8448	5.21	-1
44	8598	5.31	-1
44	8748	5.41	-1
44	8899	5.51	-1
44	9262	5.61	-1
44	9412	5.71	-1
44	9562	5.81	-1
44	9712	5.91	-1
44	9866	6.01	-1
44	10016	6.11	-1
44	10166	6.21	-1
44	10316	6.31	-1
44	10466	6.41	-1
44	10616	6.51	-1
44	11023	6.61	-1
44	11174	6.71	-1
44	11324	6.81	-1
44	11474	6.91	-1
44	11628	7.01	-1
44	11778	7.11	-1
44	11928	7.21	-1
44	12078	7.31	-1
44	12228	7.41	-1
44	12378	7.51	-1
44	12529	7.61	-1
44	12892	7.71	-1
44	13042	7.81	-1
44	13192	7.91	-1
44	13346	8.01	-1
44	13496	8.11	-1
44	13646	8.21	-1
44	13796	8.31	-1
44	13946	8.41	-1
44	14096	8.51	-1
44	14246	8.61	-1
44	14609	8.71	-1
44	14760	8.81	-1
44	14910	8.91	-1
44	15064	9.01	-1
44	15214	9.11	-1
44	15364	9.21	-1
44	15514	9.31	-1
44	15664	9.41	-1
44	15814	9.51	-1
44	15964	9.61	-1
44	16115	9.71	-1
44	16522	9.81	-1
44	16672	9.91	-1
44	16826	10.01	-1
44	16976	10.11	-1
44	17126	10.21	-1
44	17276	10.31	-1
44	17426	10.41	-1
44	17576	10.51	-1
44	17726	10.61	-1
44	17876	10.71	-1
44	18239	10.81	-1
44	18390	10.91	-1
44	18544	11.01	-1
44	18694	11.11	-1
44	18844	11.21	-1
44	18994	11.31	-1
44	19144	11.41	-1
44	19294	11.51	-1
44	19444	11.61	-1
44	19594	11.71	-1
44	19745	11.81	-1
44	20108	11.91	-1
44	20262	12.01	-1
44	20412	12.11	-1
44	20562	12.21	-1
44	20712	12.31	-1
44	20862	12.41	-1
44	21012	12.51	-1
44	21162	12.61	-1
44	21312	12.71	-1
44	21462	12.81	-1
44	21913	12.91	-1
44	22068	13.01	-1
44	22218	13.11	-1
44	22368	13.21	-1
44	22518	13.31	-1
44	22668	13.41	-1
44	22818	13.51	-1
44	22968	13.61	-1
44	23118	13.71	-1
44	23268	13.81	-1
44	23419	13.91	-1
44	23806	14.01	-1
44	23956	14.11	-1
44	24106	14.21	-1
44	24256	14.31	-1
44	24406	14.41	-1
44	24556	14.51	-1
44	24706	14.61	-1
44	24856	14.71	-1
44	25006	14.81	-1
44	25156	14.91	-1
44	25567	15.01	-1
44	25718	15.11	-1
44	25868	15.21	-1
44	26018	15.31	-1
44	26168	15.41	-1
44	26318	15.51	-1
44	26468	15.61	-1
44	26618	15.71	-1
44	26768	15.81	-1
44	26918	15.91	-1
44	27072	16.01	-1
44	27222	16.11	-1
44	27372	16.21	-1
44	27522	16.31	-1
44	27672	16.41	-1
44	27822	16.51	-1
44	27972	16.61	-1
44	28122	16.71	-1
44	28272	16.81	-1
44	28422	16.91	-1
44	28576	17.01	-1
44	28726	17.11	-1
44	28876	17.21	-1
44	29026	17.31	-1
44	29176	17.41	-1
44	29326	17.51	-1
44	29476	17.61	-1
44	29626	17.71	-1
44	29776	17.81	-1
44	29926	17.91	-1
44	30080	18.01	-1
44	30230	18.11	-1
44	30380	18.21	-1
44	30530	18.31	-1
44	30680	18.41	-1
44	30830	18.51	-1
44	30980	18.61	-1
44	31130	18.71	-1
44	31280	18.81	-1
44	31430	18.91	-1
44	31584	19.01	-1
44	31734	19.11	-1
44	31884	19.21	-1
44	32034	19.31	-1
44	32184	19.41	-1
44	32334	19.51	-1
44	32484	19.61	-1
44	32634	19.71	-1
44	32784	19.81	-1
44	32934	19.91	-1
44	33088	20.01	-1
44	33238	20.11	-1
44	33388	20.21	-1
44	33538	20.31	-1
44	33688	20.41	-1
44	33838	20.51	-1
44	33988	20.61	-1
44	34138	20.71	-1
44	34288	20.81	-1
44	34438	20.91	-1
44	34592	21.01	-1
44	34742	21.11	-1
44	34892	21.21	-1
44	35042	21.31	-1
44	35192	21.41	-1
44	35342	21.51	-1
44	35492	21.61	-1
44	35642	21.71	-1
44	35792	21.81	-1
44	35942	21.91	-1
44	36096	22.01	-1
44	36246	22.11	-1
44	36396	22.21	-1
44	36546	22.31	-1
44	36696	22.41	-1
44	36846	22.51	-1
44	36996	22.61	-1
44	37146	22.71	-1
44	37296	22.81	-1
44	37446	22.91	-1
44	37600	23.01	-1
44	37750	23.11	-1
44	37900	23.21	-1
44	38050	23.31	-1
44	38200	23.41	-1
44	38350	23.51	-1
44	38500	23.61	-1
44	38650	23.71	-1
44	38800	23.81	-1
44	38950	23.91	-1
44	39104	24.01	-1
44	39254	24.11	-1
44	39404	24.21	-1
44	39554	24.31	-1
44	39704	24.41	-1
44	39854	24.51	-1
44	40004	24.61	-1
44	40154	24.71	-1
44	40304	24.81	-1
44	40454	24.91	-1
44	40608	25.01	-1
44	40758	25.11	-1
44	40908	25.21	-1
44	41058	25.31	-1
44	41208	25.41	-1
44	41358	25.51	-1
44	41508	25.61	-1
44	41658	25.71	-1
44	41808	25.81	-1
44	41958	25.91	-1
44	42112	26.01	-1
44	42262	26.11	-1
44	42412	26.21	-1
44	42562	26.31	-1
44	42712	26.41	-1
44	42862	26.51	-1
44	43012	26.61	-1
44	43163	26.71	-1
44	43313	26.81	-1
44	43463	26.91	-1
44	43617	27.01	-1
44	43767	27.11	-1
44	43917	27.21	-1
44	44067	27.31	-1
44	44217	27.41	-1
44	44367	27.51	-1
44	44517	27.61	-1
44	44667	27.71	-1
44	44817	27.81	-1
44	44967	27.91	-1
44	45121	28.01	-1
44	45271	28.11	-1
44	45421	28.21	-1
44	45571	28.31	-1
44	45721	28.41	-1
44	45871	28.51	-1
44	46021	28.61	-1
44	46171	28.71	-1
44	46321	28.81	-1
44	46471	28.91	-1
44	46625	29.01	-1
44	46775	29.11	-1
44	46925	29.21	-1
44	47075	29.31	-1
44	47225	29.41	-1
44	47375	29.51	-1
44	47525	29.61	-1
44	47675	29.71	-1
44	47825	29.81	-1
44	47975	29.91	-1
44	48129	30.01	-1
44	48279	30.11	-1
44	48429	30.21	-1
44	48579	30.31	-1
44	48729	30.41	-1
44	48879	30.51	-1
44	49029	30.61	-1
44	49179	30.71	-1
44	49329	30.81	-1
44	49479	30.91	-1
44	49633	31.01	-1
44	49783	31.11	-1
44	49933	31.21	-1
44	50083	31.31	-1
44	50233	31.41	-1
44	50383	31.51	-1
44	50533	31.61	-1
44	50683	31.71	-1
44	50833	31.81	-1
44	50983	31.91	-1
44	51137	32.01	-1
44	51287	32.11	-1
44	51437	32.21	-1
44	51587	32.31	-1
44	51737	32.41	-1
44	51887	32.51	-1
44	52037	32.61	-1
44	52187	32.71	-1
44	52337	32.81	-1
44	52487	32.91	-1
44	52641	33.01	-1
44	52791	33.11	-1
44	52941	33.21	-1
44	53091	33.31	-1
44	53241	33.41	-1
44	53391	33.51	-1
44	53541	33.61	-1
44	53691	33.71	-1
46	26	0.21	3
46	176	0.31	3
46	326	0.41	3
46	476	0.51	3
46	626	0.61	3
46	776	0.71	3
46	926	0.81	3
46	1076	0.91	3
46	1230	1.01	3
46	1381	1.11	3
46	1532	1.21	3
46	1683	1.31	3
46	2046	1.41	3
46	2196	1.51	3
46	2346	1.61	3
46	2496	1.71	3
46	2646	1.81	3
46	2796	1.91	3
46	2950	2.01	3
46	3100	2.11	3
46	3250	2.21	3
46	3400	2.31	3
46	3763	2.41	3
46	3914	2.51	3
46	4064	2.61	3
46	4214	2.71	3
46	4364	2.81	3
46	4514	2.91	3
46	4668	3.01	3
46	4818	3.11	3
46	4968	3.21	3
46	5118	3.31	3
46	5269	3.41	3
46	5676	3.51	3
46	5826	3.61	3
46	5976	3.71	3
46	6126	3.81	3
46	6276	3.91	3
46	6430	4.01	3
46	6580	4.11	3
46	6730	4.21	3
46	6880	4.31	3
46	7030	4.41	3
46	7393	4.51	3
46	7544	4.61	3
46	7694	4.71	3
46	7844	4.81	3
46	7994	4.91	3
46	8148	5.01	3
46	8298	5.11	3
46	8448	5.21	3
46	8598	5.31	3
46	8748	5.41	3
46	8899	5.51	3
46	9262	5.61	3
46	9412	5.71	3
46	9562	5.81	3
46	9712	5.91	3
46	9866	6.01	3
46	10016	6.11	3
46	10166	6.21	3
46	10316	6.31	3
46	10466	6.41	3
46	10616	6.51	3
46	11023	6.61	3
46	11174	6.71	3
46	11324	6.81	3
46	11474	6.91	3
46	11628	7.01	3
46	11778	7.11	3
46	11928	7.21	3
46	12078	7.31	3
46	12228	7.41	3
46	12378	7.51	3
46	12529	7.61	3
46	12892	7.71	3
46	13042	7.81	3
46	13192	7.91	3
46	13346	8.01	3
46	13496	8.11	3
46	13646	8.21	3
46	13796	8.31	3
46	13946	8.41	3
46	14096	8.51	3
46	14246	8.61	3
46	14609	8.71	3
46	14760	8.81	3
46	14910	8.91	3
46	15064	9.01	3
46	15214	9.11	3
46	15364	9.21	3
46	15514	9.31	3
46	15664	9.41	3
46	15814	9.51	3
46	15964	9.61	3
46	16115	9.71	3
46	16522	9.81	3
46	16672	9.91	3
46	16826	10.01	3
46	16976	10.11	3
46	17126	10.21	3
46	17276	10.31	3
46	17426	10.41	3
46	17576	10.51	3
46	17726	10.61	3
46	17876	10.71	3
46	18239	10.81	3
46	18390	10.91	3
46	18544	11.01	3
46	18694	11.11	3
46	18844	11.21	3
46	18994	11.31	3
46	19144	11.41	3
46	19294	11.51	3
46	19444	11.61	3
46	19594	11.71	3
46	19745	11.81	3
46	20108	11.91	3
46	20262	12.01	3
46	20412	12.11	3
46	20562	12.21	3
46	20712	12.31	3
46	20862	12.41	3
46	21012	12.51	3
46	21162	12.61	3
46	21312	12.71	3
46	21462	12.81	3
46	21913	12.91	3
46	22068	13.01	3
46	22218	13.11	3
46	22368	13.21	3
46	22518	13.31	3
46	22668	13.41	3
46	22818	13.51	3
46	22968	13.61	3
46	23118	13.71	3
46	23268	13.81	3
46	23419	13.91	3
46	23806	14.01	3
46	23956	14.11	3
46	24106	14.21	3
46	24256	14.31	3
46	24406	14.41	3
46	24556	14.51	3
46	24706	14.61	3
46	24856	14.71	3
46	25006	14.81	3
46	25156	14.91	3
46	25567	15.01	3
46	25718	15.11	3
46	25868	15.21	3
46	26018	15.31	3
46	26168	15.41	3
46	26318	15.51	3
46	26468	15.61	3
46	26618	15.71	3
46	26768	15.81	3
46	26918	15.91	3
46	27072	16.01	3
46	27222	16.11	3
46	27372	16.21	3
46	27522	16.31	3
46	27672	16.41	3
46	27822	16.51	3
46	27972	16.61	3
46	28122	16.71	3
46	28272	16.81	3
46	28422	16.91	3
46	28576	17.01	3
46	28726	17.11	3
46	28876	17.21	3
46	29026	17.31	3
46	29176	17.41	3
46	29326	17.51	3
46	29476	17.61	3
46	29626	17.71	3
46	29776	17.81	3
46	29926	17.91	3
46	30080	18.01	3
46	30230	18.11	3
46	30380	18.21	3
46	30530	18.31	3
46	30680	18.41	3
46	30830	18.51	3
46	30980	18.61	3
46	31130	18.71	3
46	31280	18.81	3
46	31430	18.91	3
46	31584	19.01	3
46	31734	19.11	3
46	31884	19.21	3
46	32034	19.31	3
46	32184	19.41	3
46	32334	19.51	3
46	32484	19.61	3
46	32634	19.71	3
46	32784	19.81	3
46	32934	19.91	3
46	33088	20.01	3
46	33238	20.11	3
46	33388	20.21	3
46	33538	20.31	3
46	33688	20.41	3
46	33838	20.51	3
46	33988	20.61	3
46	34138	20.71	3
46	34288	20.81	3
46	34438	20.91	3
46	34592	21.01	3
46	34742	21.11	3
46	34892	21.21	3
46	35042	21.31	3
46	35192	21.41	3
46	35342	21.51	3
46	35492	21.61	3
46	35642	21.71	3
46	35792	21.81	3
46	35942	21.91	3
46	36096	22.01	3
46	36246	22.11	3
46	36396	22.21	3
46	36546	22.31	3
46	36696	22.41	3
46	36846	22.51	3
46	36996	22.61	3
46	37146	22.71	3
46	37296	22.81	3
46	37446	22.91	3
46	37600	23.01	3
46	37750	23.11	3
46	37900	23.21	3
46	38050	23.31	3
46	38200	23.41	3
46	38350	23.51	3
46	38500	23.61	3
46	38650	23.71	3
46	38800	23.81	3
46	38950	23.91	3
46	39104	24.01	3
46	39254	24.11	3
46	39404	24.21	3
46	39554	24.31	3
46	39704	24.41	3
46	39854	24.51	3
46	40004	24.61	3
46	40154	24.71	3
46	40304	24.81	3
46	40454	24.91	3
46	40608	25.01	3
46	40758	25.11	3
46	40908	25.21	3
46	41058	25.31	3
46	41208	25.41	3
46	41358	25.51	3
46	41508	25.61	3
46	41658	25.71	3
46	41808	25.81	3
46	41958	25.91	3
46	42112	26.01	3
46	42262	26.11	3
46	42412	26.21	3
46	42562	26.31	3
46	42712	26.41	3
46	42862	26.51	3
46	43012	26.61	3
46	43163	26.71	3
46	43313	26.81	3
46	43463	26.91	3
46	43617	27.01	3
46	43767	27.11	3
46	43917	27.21	3
46	44067	27.31	3
46	44217	27.41	3
46	44367	27.51	3
46	44517	27.61	3
46	44667	27.71	3
46	44817	27.81	3
46	44967	27.91	3
46	45121	28.01	3
46	45271	28.11	3
46	45421	28.21	3
46	45571	28.31	3
46	45721	28.41	3
46	45871	28.51	3
46	46021	28.61	3
46	46171	28.71	3
46	46321	28.81	3
46	46471	28.91	3
46	46625	29.01	3
46	46775	29.11	3
46	46925	29.21	3
46	47075	29.31	3
46	47225	29.41	3
46	47375	29.51	3
46	47525	29.61	3
46	47675	29.71	3
46	47825	29.81	3
46	47975	29.91	3
46	48129	30.01	3
46	48279	30.11	3
46	48429	30.21	3
46	48579	30.31	3
46	48729	30.41	3
46	48879	30.51	3
46	49029	30.61	3
46	49179	30.71	3
46	49329	30.81	3
46	49479	30.91	3
46	49633	31.01	3
46	49783	31.11	3
46	49933	31.21	3
46	50083	31.31	3
46	50233	31.41	3
46	50383	31.51	3
46	50533	31.61	3
46	50683	31.71	3
46	50833	31.81	3
46	50983	31.91	3
46	51137	32.01	3
46	51287	32.11	3
46	51437	32.21	3
46	51587	32.31	3
46	51737	32.41	3
46	51887	32.51	3
46	52037	32.61	3
46	52187	32.71	3
46	52337	32.81	3
46	52487	32.91	3
46	52641	33.01	3
46	52791	33.11	3
46	52941	33.21	3
46	53091	33.31	3
46	53241	33.41	3
46	53391	33.51	3
46	53541	33.61	3
46	53691	33.71	3
67	1191	1	0
67	2911	2	0
67	4629	3	0
67	6391	4	0
67	8109	5	0
67	9827	6	0
67	11589	7	0
67	13307	8	0
67	15025	9	0
67	16787	10	0
67	18505	11	0
67	20223	12	0
67	22029	13	0
67	23767	14	0
67	25528	15	0
67	27033	16	0
67	28537	17	0
67	30041	18	0
67	31545	19	0
67	33049	20	0
67	34553	21	0
67	36057	22	0
67	37561	23	0
67	39065	24	0
67	40569	25	0
67	42073	26	0
67	43578	27	0
67	45082	28	0
67	46586	29	0
67	48090	30	0
67	49594	31	0
67	51098	32	0
67	52602	33	0
66	1191	1	0.009679
66	2911	2	0.013005702336
66	4629	3	0.013005451374
66	6391	4	0.013053217562
66	8109	5	0.013004988962
66	9827	6	0.013004762194
66	11589	7	0.013147537212
66	13307	8	0.0130043143
66	15025	9	0.013004093444
66	16787	10	0.013146874468
66	18505	11	0.01300365719
66	20223	12	0.01300344148
66	22029	13	0.013289227428
66	23767	14	0.01300302504
66	25528	15	0.013051200645
66	27033	16	0.01249
66	28537	17	0.01249
66	30041	18	0.01249
66	31545	19	0.01249
66	33049	20	0.01249
66	34553	21	0.01249
66	36057	22	0.01249
66	37561	23	0.01249
66	39065	24	0.01249
66	40569	25	0.01249
66	42073	26	0.01249
66	43578	27	0.01249
66	45082	28	0.01249
66	46586	29	0.01249
66	48090	30	0.01249
66	49594	31	0.01249
66	51098	32	0.01249
66	52602	33	0.01249
65	1191	1	3
65	2911	2	3
65	4629	3	3
65	6391	4	3
65	8109	5	3
65	9827	6	3
65	11589	7	3
65	13307	8	3
65	15025	9	3
65	16787	10	3
65	18505	11	3
65	20223	12	3
65	22029	13	3
65	23767	14	3
65	25528	15	3
65	27033	16	3
65	28537	17	3
65	30041	18	3
65	31545	19	3
65	33049	20	3
65	34553	21	3
65	36057	22	3
65	37561	23	3
65	39065	24	3
65	40569	25	3
65	42073	26	3
65	43578	27	3
65	45082	28	3
65	46586	29	3
65	48090	30	3
65	49594	31	3
65	51098	32	3
65	52602	33	3
19	15	0.13	2.14537872
19	16	0.14	2.14537872
19	17	0.15	2.14537872
19	18	0.16	2.14537872
19	19	0.17	2.14537872
19	20	0.18	2.14537872
19	21	0.19	2.14537872
19	22	0.2	2.14537872
19	27	0.21	2.14537872
19	62	0.22	2.14537872
19	97	0.23	2.14537872
19	98	0.24	2.14537872
19	99	0.25	2.14537872
19	134	0.26	2.14537872
19	135	0.27	2.14537872
19	136	0.28	2.14537872
19	137	0.29	2.14537872
19	138	0.3	2.14537872
19	177	0.31	2.14537872
19	212	0.32	2.14537872
19	247	0.33	2.14537872
19	248	0.34	2.14537872
19	249	0.35	2.14537872
19	284	0.36	2.14537872
19	285	0.37	2.14537872
19	286	0.38	2.14537872
19	287	0.39	2.14537872
19	288	0.4	2.14537872
19	327	0.41	2.14537872
19	362	0.42	2.14537872
19	397	0.43	2.14537872
19	398	0.44	2.14537872
19	399	0.45	2.14537872
19	434	0.46	2.14537872
19	435	0.47	2.14537872
19	436	0.48	2.14537872
19	437	0.49	2.14537872
19	438	0.5	2.14537872
19	477	0.51	2.14537872
19	512	0.52	2.14537872
19	547	0.53	2.14537872
19	548	0.54	2.14537872
19	549	0.55	2.14537872
19	584	0.56	2.14537872
19	585	0.57	2.14537872
19	586	0.58	2.14537872
19	587	0.59	2.14537872
19	588	0.6	2.14537872
19	627	0.61	2.14537872
19	662	0.62	2.14537872
19	697	0.63	2.14537872
19	698	0.64	2.14537872
19	699	0.65	2.14537872
19	734	0.66	2.14537872
19	735	0.67	2.14537872
19	736	0.68	2.14537872
19	737	0.69	2.14537872
19	738	0.7	2.14537872
19	777	0.71	2.14537872
19	812	0.72	2.14537872
19	847	0.73	2.14537872
19	848	0.74	2.14537872
19	849	0.75	2.14537872
19	884	0.76	2.14537872
19	885	0.77	2.14537872
19	886	0.78	2.14537872
19	887	0.79	2.14537872
19	888	0.8	2.14537872
19	927	0.81	2.14537872
19	962	0.82	2.14537872
19	997	0.83	2.14537872
19	998	0.84	2.14537872
19	999	0.85	2.14537872
19	1034	0.86	2.14537872
19	1035	0.87	2.14537872
19	1036	0.88	2.14537872
19	1037	0.89	2.14537872
19	1038	0.9	2.14537872
19	1077	0.91	2.14537872
19	1112	0.92	2.14537872
19	1147	0.93	2.14537872
19	1148	0.94	2.14537872
19	1149	0.95	2.14537872
19	1184	0.96	2.14537872
19	1185	0.97	2.14537872
19	1186	0.98	2.14537872
19	1187	0.99	2.14537872
19	1192	1	2.14537872
19	1231	1.01	2.14537872
19	1266	1.02	2.14537872
19	1301	1.03	2.14537872
19	1302	1.04	2.14537872
19	1303	1.05	2.14537872
19	1338	1.06	2.14537872
19	1339	1.07	2.14537872
19	1340	1.08	2.14537872
19	1341	1.09	2.14537872
19	1342	1.1	2.14537872
19	1382	1.11	2.14537872
19	1417	1.12	2.14537872
19	1452	1.13	2.14537872
19	1453	1.14	2.14537872
19	1454	1.15	2.14537872
19	1489	1.16	2.14537872
19	1490	1.17	2.14537872
19	1491	1.18	2.14537872
19	1492	1.19	2.14537872
19	1493	1.2	2.14537872
19	1533	1.21	2.14537872
19	1568	1.22	2.14537872
19	1603	1.23	2.14537872
19	1604	1.24	2.14537872
19	1605	1.25	2.14537872
19	1640	1.26	2.14537872
19	1641	1.27	2.14537872
19	1642	1.28	2.14537872
19	1643	1.29	2.14537872
19	1644	1.3	2.14537872
19	1684	1.31	2.14537872
19	1931	1.32	2.14537872
19	1966	1.33	2.14537872
19	1967	1.34	2.14537872
19	1968	1.35	2.14537872
19	2004	1.36	2.14537872
19	2005	1.37	2.14537872
19	2006	1.38	2.14537872
19	2007	1.39	2.14537872
19	2008	1.4	2.14537872
19	2047	1.41	2.14537872
19	2082	1.42	2.14537872
19	2117	1.43	2.14537872
19	2118	1.44	2.14537872
19	2119	1.45	2.14537872
19	2154	1.46	2.14537872
19	2155	1.47	2.14537872
19	2156	1.48	2.14537872
19	2157	1.49	2.14537872
19	2158	1.5	2.14537872
19	2197	1.51	2.14537872
19	2232	1.52	2.14537872
19	2267	1.53	2.14537872
19	2268	1.54	2.14537872
19	2269	1.55	2.14537872
19	2304	1.56	2.14537872
19	2305	1.57	2.14537872
19	2306	1.58	2.14537872
19	2307	1.59	2.14537872
19	2308	1.6	2.14537872
19	2347	1.61	2.14537872
19	2382	1.62	2.14537872
19	2417	1.63	2.14537872
19	2418	1.64	2.14537872
19	2419	1.65	2.14537872
19	2454	1.66	2.14537872
19	2455	1.67	2.14537872
19	2456	1.68	2.14537872
19	2457	1.69	2.14537872
19	2458	1.7	2.14537872
19	2497	1.71	2.14537872
19	2532	1.72	2.14537872
19	2567	1.73	2.14537872
19	2568	1.74	2.14537872
19	2569	1.75	2.14537872
19	2604	1.76	2.14537872
19	2605	1.77	2.14537872
19	2606	1.78	2.14537872
19	2607	1.79	2.14537872
19	2608	1.8	2.14537872
19	2647	1.81	2.14537872
19	2682	1.82	2.14537872
19	2717	1.83	2.14537872
19	2718	1.84	2.14537872
19	2719	1.85	2.14537872
19	2754	1.86	2.14537872
19	2755	1.87	2.14537872
19	2756	1.88	2.14537872
19	2757	1.89	2.14537872
19	2758	1.9	2.14537872
19	2797	1.91	2.14537872
19	2832	1.92	2.14537872
19	2867	1.93	2.14537872
19	2868	1.94	2.14537872
19	2869	1.95	2.14537872
19	2904	1.96	2.14537872
19	2905	1.97	2.14537872
19	2906	1.98	2.14537872
19	2907	1.99	2.14537872
19	2912	2	2.14537872
19	2951	2.01	2.14537872
19	2986	2.02	2.14537872
19	3021	2.03	2.14537872
19	3022	2.04	2.14537872
19	3023	2.05	2.14537872
19	3058	2.06	2.14537872
19	3059	2.07	2.14537872
19	3060	2.08	2.14537872
19	3061	2.09	2.14537872
19	3062	2.1	2.14537872
19	3101	2.11	2.14537872
19	3136	2.12	2.14537872
19	3171	2.13	2.14537872
19	3172	2.14	2.14537872
19	3173	2.15	2.14537872
19	3208	2.16	2.14537872
19	3209	2.17	2.14537872
19	3210	2.18	2.14537872
19	3211	2.19	2.14537872
19	3212	2.2	2.14537872
19	3251	2.21	2.14537872
19	3286	2.22	2.14537872
19	3321	2.23	2.14537872
19	3322	2.24	2.14537872
19	3323	2.25	2.14537872
19	3358	2.26	2.14537872
19	3359	2.27	2.14537872
19	3360	2.28	2.14537872
19	3361	2.29	2.14537872
19	3362	2.3	2.14537872
19	3401	2.31	2.14537872
19	3436	2.32	2.14537872
19	3471	2.33	2.14537872
19	3472	2.34	2.14537872
19	3473	2.35	2.14537872
19	3509	2.36	2.14537872
19	3722	2.37	2.14537872
19	3723	2.38	2.14537872
19	3724	2.39	2.14537872
19	3725	2.4	2.14537872
19	3765	2.41	2.14537872
19	3800	2.42	2.14537872
19	3835	2.43	2.14537872
19	3836	2.44	2.14537872
19	3837	2.45	2.14537872
19	3872	2.46	2.14537872
19	3873	2.47	2.14537872
19	3874	2.48	2.14537872
19	3875	2.49	2.14537872
19	3876	2.5	2.14537872
19	3915	2.51	2.14537872
19	3950	2.52	2.14537872
19	3985	2.53	2.14537872
19	3986	2.54	2.14537872
19	3987	2.55	2.14537872
19	4022	2.56	2.14537872
19	4023	2.57	2.14537872
19	4024	2.58	2.14537872
19	4025	2.59	2.14537872
19	4026	2.6	2.14537872
19	4065	2.61	2.14537872
19	4100	2.62	2.14537872
19	4135	2.63	2.14537872
19	4136	2.64	2.14537872
19	4137	2.65	2.14537872
19	4172	2.66	2.14537872
19	4173	2.67	2.14537872
19	4174	2.68	2.14537872
19	4175	2.69	2.14537872
19	4176	2.7	2.14537872
19	4215	2.71	2.14537872
19	4250	2.72	2.14537872
19	4285	2.73	2.14537872
19	4286	2.74	2.14537872
19	4287	2.75	2.14537872
19	4322	2.76	2.14537872
19	4323	2.77	2.14537872
19	4324	2.78	2.14537872
19	4325	2.79	2.14537872
19	4326	2.8	2.14537872
19	4365	2.81	2.14537872
19	4400	2.82	2.14537872
19	4435	2.83	2.14537872
19	4436	2.84	2.14537872
19	4437	2.85	2.14537872
19	4472	2.86	2.14537872
19	4473	2.87	2.14537872
19	4474	2.88	2.14537872
19	4475	2.89	2.14537872
19	4476	2.9	2.14537872
19	4515	2.91	2.14537872
19	4550	2.92	2.14537872
19	4585	2.93	2.14537872
19	4586	2.94	2.14537872
19	4587	2.95	2.14537872
19	4622	2.96	2.14537872
19	4623	2.97	2.14537872
19	4624	2.98	2.14537872
19	4625	2.99	2.14537872
19	4630	3	2.14537872
19	4669	3.01	2.14537872
19	4704	3.02	2.14537872
19	4739	3.03	2.14537872
19	4740	3.04	2.14537872
19	4741	3.05	2.14537872
19	4776	3.06	2.14537872
19	4777	3.07	2.14537872
19	4778	3.08	2.14537872
19	4779	3.09	2.14537872
19	4780	3.1	2.14537872
19	4819	3.11	2.14537872
19	4854	3.12	2.14537872
19	4889	3.13	2.14537872
19	4890	3.14	2.14537872
19	4891	3.15	2.14537872
19	4926	3.16	2.14537872
19	4927	3.17	2.14537872
19	4928	3.18	2.14537872
19	4929	3.19	2.14537872
19	4930	3.2	2.14537872
19	4969	3.21	2.14537872
19	5004	3.22	2.14537872
19	5039	3.23	2.14537872
19	5040	3.24	2.14537872
19	5041	3.25	2.14537872
19	5076	3.26	2.14537872
19	5077	3.27	2.14537872
19	5078	3.28	2.14537872
19	5079	3.29	2.14537872
19	5080	3.3	2.14537872
19	5119	3.31	2.14537872
19	5154	3.32	2.14537872
19	5189	3.33	2.14537872
19	5190	3.34	2.14537872
19	5191	3.35	2.14537872
19	5226	3.36	2.14537872
19	5227	3.37	2.14537872
19	5228	3.38	2.14537872
19	5229	3.39	2.14537872
19	5230	3.4	2.14537872
19	5270	3.41	2.14537872
19	5561	3.42	2.14537872
19	5596	3.43	2.14537872
19	5597	3.44	2.14537872
19	5598	3.45	2.14537872
19	5634	3.46	2.14537872
19	5635	3.47	2.14537872
19	5636	3.48	2.14537872
19	5637	3.49	2.14537872
19	5638	3.5	2.14537872
19	5677	3.51	2.14537872
19	5712	3.52	2.14537872
19	5747	3.53	2.14537872
19	5748	3.54	2.14537872
19	5749	3.55	2.14537872
19	5784	3.56	2.14537872
19	5785	3.57	2.14537872
19	5786	3.58	2.14537872
19	5787	3.59	2.14537872
19	5788	3.6	2.14537872
19	5827	3.61	2.14537872
19	5862	3.62	2.14537872
19	5897	3.63	2.14537872
19	5898	3.64	2.14537872
19	5899	3.65	2.14537872
19	5934	3.66	2.14537872
19	5935	3.67	2.14537872
19	5936	3.68	2.14537872
19	5937	3.69	2.14537872
19	5938	3.7	2.14537872
19	5977	3.71	2.14537872
19	6012	3.72	2.14537872
19	6047	3.73	2.14537872
19	6048	3.74	2.14537872
19	6049	3.75	2.14537872
19	6084	3.76	2.14537872
19	6085	3.77	2.14537872
19	6086	3.78	2.14537872
19	6087	3.79	2.14537872
19	6088	3.8	2.14537872
19	6127	3.81	2.14537872
19	6162	3.82	2.14537872
19	6197	3.83	2.14537872
19	6198	3.84	2.14537872
19	6199	3.85	2.14537872
19	6234	3.86	2.14537872
19	6235	3.87	2.14537872
19	6236	3.88	2.14537872
19	6237	3.89	2.14537872
19	6238	3.9	2.14537872
19	6277	3.91	2.14537872
19	6312	3.92	2.14537872
19	6347	3.93	2.14537872
19	6348	3.94	2.14537872
19	6349	3.95	2.14537872
19	6384	3.96	2.14537872
19	6385	3.97	2.14537872
19	6386	3.98	2.14537872
19	6387	3.99	2.14537872
19	6392	4	2.14537872
19	6431	4.01	2.14537872
19	6466	4.02	2.14537872
19	6501	4.03	2.14537872
19	6502	4.04	2.14537872
19	6503	4.05	2.14537872
19	6538	4.06	2.14537872
19	6539	4.07	2.14537872
19	6540	4.08	2.14537872
19	6541	4.09	2.14537872
19	6542	4.1	2.14537872
19	6581	4.11	2.14537872
19	6616	4.12	2.14537872
19	6651	4.13	2.14537872
19	6652	4.14	2.14537872
19	6653	4.15	2.14537872
19	6688	4.16	2.14537872
19	6689	4.17	2.14537872
19	6690	4.18	2.14537872
19	6691	4.19	2.14537872
19	6692	4.2	2.14537872
19	6731	4.21	2.14537872
19	6766	4.22	2.14537872
19	6801	4.23	2.14537872
19	6802	4.24	2.14537872
19	6803	4.25	2.14537872
19	6838	4.26	2.14537872
19	6839	4.27	2.14537872
19	6840	4.28	2.14537872
19	6841	4.29	2.14537872
19	6842	4.3	2.14537872
19	6881	4.31	2.14537872
19	6916	4.32	2.14537872
19	6951	4.33	2.14537872
19	6952	4.34	2.14537872
19	6953	4.35	2.14537872
19	6988	4.36	2.14537872
19	6989	4.37	2.14537872
19	6990	4.38	2.14537872
19	6991	4.39	2.14537872
19	6992	4.4	2.14537872
19	7031	4.41	2.14537872
19	7066	4.42	2.14537872
19	7101	4.43	2.14537872
19	7102	4.44	2.14537872
19	7103	4.45	2.14537872
19	7139	4.46	2.14537872
19	7352	4.47	2.14537872
19	7353	4.48	2.14537872
19	7354	4.49	2.14537872
19	7355	4.5	2.14537872
19	7395	4.51	2.14537872
19	7430	4.52	2.14537872
19	7465	4.53	2.14537872
19	7466	4.54	2.14537872
19	7467	4.55	2.14537872
19	7502	4.56	2.14537872
19	7503	4.57	2.14537872
19	7504	4.58	2.14537872
19	7505	4.59	2.14537872
19	7506	4.6	2.14537872
19	7545	4.61	2.14537872
19	7580	4.62	2.14537872
19	7615	4.63	2.14537872
19	7616	4.64	2.14537872
19	7617	4.65	2.14537872
19	7652	4.66	2.14537872
19	7653	4.67	2.14537872
19	7654	4.68	2.14537872
19	7655	4.69	2.14537872
19	7656	4.7	2.14537872
19	7695	4.71	2.14537872
19	7730	4.72	2.14537872
19	7765	4.73	2.14537872
19	7766	4.74	2.14537872
19	7767	4.75	2.14537872
19	7802	4.76	2.14537872
19	7803	4.77	2.14537872
19	7804	4.78	2.14537872
19	7805	4.79	2.14537872
19	7806	4.8	2.14537872
19	7845	4.81	2.14537872
19	7880	4.82	2.14537872
19	7915	4.83	2.14537872
19	7916	4.84	2.14537872
19	7917	4.85	2.14537872
19	7952	4.86	2.14537872
19	7953	4.87	2.14537872
19	7954	4.88	2.14537872
19	7955	4.89	2.14537872
19	7956	4.9	2.14537872
19	7995	4.91	2.14537872
19	8030	4.92	2.14537872
19	8065	4.93	2.14537872
19	8066	4.94	2.14537872
19	8067	4.95	2.14537872
19	8102	4.96	2.14537872
19	8103	4.97	2.14537872
19	8104	4.98	2.14537872
19	8105	4.99	2.14537872
19	8110	5	2.14537872
19	8149	5.01	2.14537872
19	8184	5.02	2.14537872
19	8219	5.03	2.14537872
19	8220	5.04	2.14537872
19	8221	5.05	2.14537872
19	8256	5.06	2.14537872
19	8257	5.07	2.14537872
19	8258	5.08	2.14537872
19	8259	5.09	2.14537872
19	8260	5.1	2.14537872
19	8299	5.11	2.14537872
19	8334	5.12	2.14537872
19	8369	5.13	2.14537872
19	8370	5.14	2.14537872
19	8371	5.15	2.14537872
19	8406	5.16	2.14537872
19	8407	5.17	2.14537872
19	8408	5.18	2.14537872
19	8409	5.19	2.14537872
19	8410	5.2	2.14537872
19	8449	5.21	2.14537872
19	8484	5.22	2.14537872
19	8519	5.23	2.14537872
19	8520	5.24	2.14537872
19	8521	5.25	2.14537872
19	8556	5.26	2.14537872
19	8557	5.27	2.14537872
19	8558	5.28	2.14537872
19	8559	5.29	2.14537872
19	8560	5.3	2.14537872
19	8599	5.31	2.14537872
19	8634	5.32	2.14537872
19	8669	5.33	2.14537872
19	8670	5.34	2.14537872
19	8671	5.35	2.14537872
19	8706	5.36	2.14537872
19	8707	5.37	2.14537872
19	8708	5.38	2.14537872
19	8709	5.39	2.14537872
19	8710	5.4	2.14537872
19	8749	5.41	2.14537872
19	8784	5.42	2.14537872
19	8819	5.43	2.14537872
19	8820	5.44	2.14537872
19	8821	5.45	2.14537872
19	8856	5.46	2.14537872
19	8857	5.47	2.14537872
19	8858	5.48	2.14537872
19	8859	5.49	2.14537872
19	8860	5.5	2.14537872
19	8900	5.51	2.14537872
19	9147	5.52	2.14537872
19	9182	5.53	2.14537872
19	9183	5.54	2.14537872
19	9184	5.55	2.14537872
19	9220	5.56	2.14537872
19	9221	5.57	2.14537872
19	9222	5.58	2.14537872
19	9223	5.59	2.14537872
19	9224	5.6	2.14537872
19	9263	5.61	2.14537872
19	9298	5.62	2.14537872
19	9333	5.63	2.14537872
19	9334	5.64	2.14537872
19	9335	5.65	2.14537872
19	9370	5.66	2.14537872
19	9371	5.67	2.14537872
19	9372	5.68	2.14537872
19	9373	5.69	2.14537872
19	9374	5.7	2.14537872
19	9413	5.71	2.14537872
19	9448	5.72	2.14537872
19	9483	5.73	2.14537872
19	9484	5.74	2.14537872
19	9485	5.75	2.14537872
19	9520	5.76	2.14537872
19	9521	5.77	2.14537872
19	9522	5.78	2.14537872
19	9523	5.79	2.14537872
19	9524	5.8	2.14537872
19	9563	5.81	2.14537872
19	9598	5.82	2.14537872
19	9633	5.83	2.14537872
19	9634	5.84	2.14537872
19	9635	5.85	2.14537872
19	9670	5.86	2.14537872
19	9671	5.87	2.14537872
19	9672	5.88	2.14537872
19	9673	5.89	2.14537872
19	9674	5.9	2.14537872
19	9713	5.91	2.14537872
19	9748	5.92	2.14537872
19	9783	5.93	2.14537872
19	9784	5.94	2.14537872
19	9785	5.95	2.14537872
19	9820	5.96	2.14537872
19	9821	5.97	2.14537872
19	9822	5.98	2.14537872
19	9823	5.99	2.14537872
19	9828	6	2.14537872
19	9867	6.01	2.14537872
19	9902	6.02	2.14537872
19	9937	6.03	2.14537872
19	9938	6.04	2.14537872
19	9939	6.05	2.14537872
19	9974	6.06	2.14537872
19	9975	6.07	2.14537872
19	9976	6.08	2.14537872
19	9977	6.09	2.14537872
19	9978	6.1	2.14537872
19	10017	6.11	2.14537872
19	10052	6.12	2.14537872
19	10087	6.13	2.14537872
19	10088	6.14	2.14537872
19	10089	6.15	2.14537872
19	10124	6.16	2.14537872
19	10125	6.17	2.14537872
19	10126	6.18	2.14537872
19	10127	6.19	2.14537872
19	10128	6.2	2.14537872
19	10167	6.21	2.14537872
19	10202	6.22	2.14537872
19	10237	6.23	2.14537872
19	10238	6.24	2.14537872
19	10239	6.25	2.14537872
19	10274	6.26	2.14537872
19	10275	6.27	2.14537872
19	10276	6.28	2.14537872
19	10277	6.29	2.14537872
19	10278	6.3	2.14537872
19	10317	6.31	2.14537872
19	10352	6.32	2.14537872
19	10387	6.33	2.14537872
19	10388	6.34	2.14537872
19	10389	6.35	2.14537872
19	10424	6.36	2.14537872
19	10425	6.37	2.14537872
19	10426	6.38	2.14537872
19	10427	6.39	2.14537872
19	10428	6.4	2.14537872
19	10467	6.41	2.14537872
19	10502	6.42	2.14537872
19	10537	6.43	2.14537872
19	10538	6.44	2.14537872
19	10539	6.45	2.14537872
19	10574	6.46	2.14537872
19	10575	6.47	2.14537872
19	10576	6.48	2.14537872
19	10577	6.49	2.14537872
19	10578	6.5	2.14537872
19	10617	6.51	2.14537872
19	10652	6.52	2.14537872
19	10687	6.53	2.14537872
19	10688	6.54	2.14537872
19	10689	6.55	2.14537872
19	10725	6.56	2.14537872
19	10982	6.57	2.14537872
19	10983	6.58	2.14537872
19	10984	6.59	2.14537872
19	10985	6.6	2.14537872
19	11025	6.61	2.14537872
19	11060	6.62	2.14537872
19	11095	6.63	2.14537872
19	11096	6.64	2.14537872
19	11097	6.65	2.14537872
19	11132	6.66	2.14537872
19	11133	6.67	2.14537872
19	11134	6.68	2.14537872
19	11135	6.69	2.14537872
19	11136	6.7	2.14537872
19	11175	6.71	2.14537872
19	11210	6.72	2.14537872
19	11245	6.73	2.14537872
19	11246	6.74	2.14537872
19	11247	6.75	2.14537872
19	11282	6.76	2.14537872
19	11283	6.77	2.14537872
19	11284	6.78	2.14537872
19	11285	6.79	2.14537872
19	11286	6.8	2.14537872
19	11325	6.81	2.14537872
19	11360	6.82	2.14537872
19	11395	6.83	2.14537872
19	11396	6.84	2.14537872
19	11397	6.85	2.14537872
19	11432	6.86	2.14537872
19	11433	6.87	2.14537872
19	11434	6.88	2.14537872
19	11435	6.89	2.14537872
19	11436	6.9	2.14537872
19	11475	6.91	2.14537872
19	11510	6.92	2.14537872
19	11545	6.93	2.14537872
19	11546	6.94	2.14537872
19	11547	6.95	2.14537872
19	11582	6.96	2.14537872
19	11583	6.97	2.14537872
19	11584	6.98	2.14537872
19	11585	6.99	2.14537872
19	11590	7	2.14537872
19	11629	7.01	2.14537872
19	11664	7.02	2.14537872
19	11699	7.03	2.14537872
19	11700	7.04	2.14537872
19	11701	7.05	2.14537872
19	11736	7.06	2.14537872
19	11737	7.07	2.14537872
19	11738	7.08	2.14537872
19	11739	7.09	2.14537872
19	11740	7.1	2.14537872
19	11779	7.11	2.14537872
19	11814	7.12	2.14537872
19	11849	7.13	2.14537872
19	11850	7.14	2.14537872
19	11851	7.15	2.14537872
19	11886	7.16	2.14537872
19	11887	7.17	2.14537872
19	11888	7.18	2.14537872
19	11889	7.19	2.14537872
19	11890	7.2	2.14537872
19	11929	7.21	2.14537872
19	11964	7.22	2.14537872
19	11999	7.23	2.14537872
19	12000	7.24	2.14537872
19	12001	7.25	2.14537872
19	12036	7.26	2.14537872
19	12037	7.27	2.14537872
19	12038	7.28	2.14537872
19	12039	7.29	2.14537872
19	12040	7.3	2.14537872
19	12079	7.31	2.14537872
19	12114	7.32	2.14537872
19	12149	7.33	2.14537872
19	12150	7.34	2.14537872
19	12151	7.35	2.14537872
19	12186	7.36	2.14537872
19	12187	7.37	2.14537872
19	12188	7.38	2.14537872
19	12189	7.39	2.14537872
19	12190	7.4	2.14537872
19	12229	7.41	2.14537872
19	12264	7.42	2.14537872
19	12299	7.43	2.14537872
19	12300	7.44	2.14537872
19	12301	7.45	2.14537872
19	12336	7.46	2.14537872
19	12337	7.47	2.14537872
19	12338	7.48	2.14537872
19	12339	7.49	2.14537872
19	12340	7.5	2.14537872
19	12379	7.51	2.14537872
19	12414	7.52	2.14537872
19	12449	7.53	2.14537872
19	12450	7.54	2.14537872
19	12451	7.55	2.14537872
19	12486	7.56	2.14537872
19	12487	7.57	2.14537872
19	12488	7.58	2.14537872
19	12489	7.59	2.14537872
19	12490	7.6	2.14537872
19	12530	7.61	2.14537872
19	12777	7.62	2.14537872
19	12812	7.63	2.14537872
19	12813	7.64	2.14537872
19	12814	7.65	2.14537872
19	12850	7.66	2.14537872
19	12851	7.67	2.14537872
19	12852	7.68	2.14537872
19	12853	7.69	2.14537872
19	12854	7.7	2.14537872
19	12893	7.71	2.14537872
19	12928	7.72	2.14537872
19	12963	7.73	2.14537872
19	12964	7.74	2.14537872
19	12965	7.75	2.14537872
19	13000	7.76	2.14537872
19	13001	7.77	2.14537872
19	13002	7.78	2.14537872
19	13003	7.79	2.14537872
19	13004	7.8	2.14537872
19	13043	7.81	2.14537872
19	13078	7.82	2.14537872
19	13113	7.83	2.14537872
19	13114	7.84	2.14537872
19	13115	7.85	2.14537872
19	13150	7.86	2.14537872
19	13151	7.87	2.14537872
19	13152	7.88	2.14537872
19	13153	7.89	2.14537872
19	13154	7.9	2.14537872
19	13193	7.91	2.14537872
19	13228	7.92	2.14537872
19	13263	7.93	2.14537872
19	13264	7.94	2.14537872
19	13265	7.95	2.14537872
19	13300	7.96	2.14537872
19	13301	7.97	2.14537872
19	13302	7.98	2.14537872
19	13303	7.99	2.14537872
19	13308	8	2.14537872
19	13347	8.01	2.14537872
19	13382	8.02	2.14537872
19	13417	8.03	2.14537872
19	13418	8.04	2.14537872
19	13419	8.05	2.14537872
19	13454	8.06	2.14537872
19	13455	8.07	2.14537872
19	13456	8.08	2.14537872
19	13457	8.09	2.14537872
19	13458	8.1	2.14537872
19	13497	8.11	2.14537872
19	13532	8.12	2.14537872
19	13567	8.13	2.14537872
19	13568	8.14	2.14537872
19	13569	8.15	2.14537872
19	13604	8.16	2.14537872
19	13605	8.17	2.14537872
19	13606	8.18	2.14537872
19	13607	8.19	2.14537872
19	13608	8.2	2.14537872
19	13647	8.21	2.14537872
19	13682	8.22	2.14537872
19	13717	8.23	2.14537872
19	13718	8.24	2.14537872
19	13719	8.25	2.14537872
19	13754	8.26	2.14537872
19	13755	8.27	2.14537872
19	13756	8.28	2.14537872
19	13757	8.29	2.14537872
19	13758	8.3	2.14537872
19	13797	8.31	2.14537872
19	13832	8.32	2.14537872
19	13867	8.33	2.14537872
19	13868	8.34	2.14537872
19	13869	8.35	2.14537872
19	13904	8.36	2.14537872
19	13905	8.37	2.14537872
19	13906	8.38	2.14537872
19	13907	8.39	2.14537872
19	13908	8.4	2.14537872
19	13947	8.41	2.14537872
19	13982	8.42	2.14537872
19	14017	8.43	2.14537872
19	14018	8.44	2.14537872
19	14019	8.45	2.14537872
19	14054	8.46	2.14537872
19	14055	8.47	2.14537872
19	14056	8.48	2.14537872
19	14057	8.49	2.14537872
19	14058	8.5	2.14537872
19	14097	8.51	2.14537872
19	14132	8.52	2.14537872
19	14167	8.53	2.14537872
19	14168	8.54	2.14537872
19	14169	8.55	2.14537872
19	14204	8.56	2.14537872
19	14205	8.57	2.14537872
19	14206	8.58	2.14537872
19	14207	8.59	2.14537872
19	14208	8.6	2.14537872
19	14247	8.61	2.14537872
19	14282	8.62	2.14537872
19	14317	8.63	2.14537872
19	14318	8.64	2.14537872
19	14319	8.65	2.14537872
19	14355	8.66	2.14537872
19	14568	8.67	2.14537872
19	14569	8.68	2.14537872
19	14570	8.69	2.14537872
19	14571	8.7	2.14537872
19	14611	8.71	2.14537872
19	14646	8.72	2.14537872
19	14681	8.73	2.14537872
19	14682	8.74	2.14537872
19	14683	8.75	2.14537872
19	14718	8.76	2.14537872
19	14719	8.77	2.14537872
19	14720	8.78	2.14537872
19	14721	8.79	2.14537872
19	14722	8.8	2.14537872
19	14761	8.81	2.14537872
19	14796	8.82	2.14537872
19	14831	8.83	2.14537872
19	14832	8.84	2.14537872
19	14833	8.85	2.14537872
19	14868	8.86	2.14537872
19	14869	8.87	2.14537872
19	14870	8.88	2.14537872
19	14871	8.89	2.14537872
19	14872	8.9	2.14537872
19	14911	8.91	2.14537872
19	14946	8.92	2.14537872
19	14981	8.93	2.14537872
19	14982	8.94	2.14537872
19	14983	8.95	2.14537872
19	15018	8.96	2.14537872
19	15019	8.97	2.14537872
19	15020	8.98	2.14537872
19	15021	8.99	2.14537872
19	15026	9	2.14537872
19	15065	9.01	2.14537872
19	15100	9.02	2.14537872
19	15135	9.03	2.14537872
19	15136	9.04	2.14537872
19	15137	9.05	2.14537872
19	15172	9.06	2.14537872
19	15173	9.07	2.14537872
19	15174	9.08	2.14537872
19	15175	9.09	2.14537872
19	15176	9.1	2.14537872
19	15215	9.11	2.14537872
19	15250	9.12	2.14537872
19	15285	9.13	2.14537872
19	15286	9.14	2.14537872
19	15287	9.15	2.14537872
19	15322	9.16	2.14537872
19	15323	9.17	2.14537872
19	15324	9.18	2.14537872
19	15325	9.19	2.14537872
19	15326	9.2	2.14537872
19	15365	9.21	2.14537872
19	15400	9.22	2.14537872
19	15435	9.23	2.14537872
19	15436	9.24	2.14537872
19	15437	9.25	2.14537872
19	15472	9.26	2.14537872
19	15473	9.27	2.14537872
19	15474	9.28	2.14537872
19	15475	9.29	2.14537872
19	15476	9.3	2.14537872
19	15515	9.31	2.14537872
19	15550	9.32	2.14537872
19	15585	9.33	2.14537872
19	15586	9.34	2.14537872
19	15587	9.35	2.14537872
19	15622	9.36	2.14537872
19	15623	9.37	2.14537872
19	15624	9.38	2.14537872
19	15625	9.39	2.14537872
19	15626	9.4	2.14537872
19	15665	9.41	2.14537872
19	15700	9.42	2.14537872
19	15735	9.43	2.14537872
19	15736	9.44	2.14537872
19	15737	9.45	2.14537872
19	15772	9.46	2.14537872
19	15773	9.47	2.14537872
19	15774	9.48	2.14537872
19	15775	9.49	2.14537872
19	15776	9.5	2.14537872
19	15815	9.51	2.14537872
19	15850	9.52	2.14537872
19	15885	9.53	2.14537872
19	15886	9.54	2.14537872
[...]
2	67652	55.23	931.55726268403
2	67653	55.24	931.69615168374
2	67654	55.25	931.83504068346
2	67673	55.26	931.97392968317
2	67674	55.27	932.11281868289
2	67675	55.28	932.2517076826
2	67676	55.29	932.39059668231
2	67677	55.3	932.52948568203
2	67680	55.31	932.66837468175
2	67681	55.32	932.80726368146
2	67700	55.33	932.94615268118
2	67701	55.34	933.0850416809
2	67702	55.35	933.22393068061
2	67721	55.36	933.36281968033
2	67722	55.37	933.50170868005
2	67723	55.38	933.64059767977
2	67724	55.39	933.77948667949
2	67725	55.4	933.91837567921
2	67728	55.41	934.05726467893
2	67729	55.42	934.19615367865
2	67748	55.43	934.33504267837
2	67749	55.44	934.47393167809
2	67750	55.45	934.61282067782
2	67769	55.46	934.75170967754
2	67770	55.47	934.89059867726
2	67771	55.48	935.02948767698
2	67772	55.49	935.16837667671
2	67773	55.5	935.30726567643
2	67776	55.51	935.44615467616
2	67777	55.52	935.58504367588
2	67796	55.53	935.72393267561
2	67797	55.54	935.86282167533
2	67798	55.55	936.00171067506
2	67817	55.56	936.14059967479
2	67818	55.57	936.27948867451
2	67819	55.58	936.41837767424
2	67820	55.59	936.55726667397
2	67821	55.6	936.6961556737
2	67824	55.61	936.83504467343
2	67825	55.62	936.97393367316
2	67844	55.63	937.11282267289
2	67845	55.64	937.25171167262
2	67846	55.65	937.39060067235
2	67865	55.66	937.52948967208
2	67866	55.67	937.66837867181
2	67867	55.68	937.80726767154
2	67868	55.69	937.94615667127
2	67869	55.7	938.08504567101
2	67872	55.71	938.22393467074
2	67873	55.72	938.36282367047
2	67892	55.73	938.50171267021
2	67893	55.74	938.64060166994
2	67894	55.75	938.77949066968
2	67913	55.76	938.91837966941
2	67914	55.77	939.05726866915
2	67915	55.78	939.19615766888
2	67916	55.79	939.33504666862
2	67917	55.8	939.47393566836
2	67920	55.81	939.61282466809
2	67921	55.82	939.75171366783
2	67940	55.83	939.89060266757
2	67941	55.84	940.02949166731
2	67942	55.85	940.16838066705
2	67961	55.86	940.30726966679
2	67962	55.87	940.44615866653
2	67963	55.88	940.58504766627
2	67964	55.89	940.72393666601
2	67965	55.9	940.86282566575
2	67968	55.91	941.00171466549
2	67969	55.92	941.14060366523
2	67988	55.93	941.27949266497
2	67989	55.94	941.41838166472
2	67990	55.95	941.55727066446
2	68009	55.96	941.6961596642
2	68010	55.97	941.83504866395
2	68011	55.98	941.97393766369
2	68012	55.99	942.11282666343
2	68015	56	942.25171566318
2	68018	56.01	942.39060466292
2	68019	56.02	942.52949366267
2	68038	56.03	942.66838266242
2	68039	56.04	942.80727166216
2	68040	56.05	942.94616066191
2	68059	56.06	943.08504966166
2	68060	56.07	943.2239386614
2	68061	56.08	943.36282766115
2	68062	56.09	943.5017166609
2	68063	56.1	943.64060566065
2	68066	56.11	943.7794946604
2	68067	56.12	943.91838366015
2	68086	56.13	944.0572726599
2	68087	56.14	944.19616165965
2	68088	56.15	944.3350506594
2	68107	56.16	944.47393965915
2	68108	56.17	944.6128286589
2	68109	56.18	944.75171765866
2	68110	56.19	944.89060665841
2	68111	56.2	945.02949565816
2	68114	56.21	945.16838465791
2	68115	56.22	945.30727365767
2	68134	56.23	945.44616265742
2	68135	56.24	945.58505165718
2	68136	56.25	945.72394065693
2	68155	56.26	945.86282965669
2	68156	56.27	946.00171865644
2	68157	56.28	946.1406076562
2	68158	56.29	946.27949665595
2	68159	56.3	946.41838565571
2	68162	56.31	946.55727465547
2	68163	56.32	946.69616365522
2	68182	56.33	946.83505265498
2	68183	56.34	946.97394165474
2	68184	56.35	947.1128306545
2	68203	56.36	947.25171965426
2	68204	56.37	947.39060865402
2	68205	56.38	947.52949765378
2	68206	56.39	947.66838665354
2	68207	56.4	947.8072756533
2	68210	56.41	947.94616465306
2	68211	56.42	948.08505365282
2	68230	56.43	948.22394265258
2	68231	56.44	948.36283165234
2	68232	56.45	948.5017206521
2	68251	56.46	948.64060965187
2	68252	56.47	948.77949865163
2	68253	56.48	948.91838765139
2	68254	56.49	949.05727665116
2	68255	56.5	949.19616565092
2	68258	56.51	949.33505465069
2	68259	56.52	949.47394365045
2	68278	56.53	949.61283265022
2	68279	56.54	949.75172164998
2	68280	56.55	949.89061064975
2	68299	56.56	950.02949964951
2	68300	56.57	950.16838864928
2	68301	56.58	950.30727764905
2	68302	56.59	950.44616664881
2	68303	56.6	950.58505564858
2	68306	56.61	950.72394464835
2	68307	56.62	950.86283364812
2	68326	56.63	951.00172264789
2	68327	56.64	951.14061164766
2	68328	56.65	951.27950064743
2	68347	56.66	951.4183896472
2	68348	56.67	951.55727864697
2	68349	56.68	951.69616764674
2	68350	56.69	951.83505664651
2	68351	56.7	951.97394564628
2	68354	56.71	952.11283464605
2	68355	56.72	952.25172364582
2	68374	56.73	952.3906126456
2	68375	56.74	952.52950164537
2	68376	56.75	952.66839064514
2	68395	56.76	952.80727964491
2	68396	56.77	952.94616864469
2	68397	56.78	953.08505764446
2	68398	56.79	953.22394664424
2	68399	56.8	953.36283564401
2	68402	56.81	953.50172464379
2	68403	56.82	953.64061364356
2	68422	56.83	953.77950264334
2	68423	56.84	953.91839164312
2	68424	56.85	954.05728064289
2	68443	56.86	954.19616964267
2	68444	56.87	954.33505864245
2	68445	56.88	954.47394764222
2	68446	56.89	954.612836642
2	68447	56.9	954.75172564178
2	68450	56.91	954.89061464156
2	68451	56.92	955.02950364134
2	68470	56.93	955.16839264112
2	68471	56.94	955.3072816409
2	68472	56.95	955.44617064068
2	68491	56.96	955.58505964046
2	68492	56.97	955.72394864024
2	68493	56.98	955.86283764002
2	68494	56.99	956.0017266398
2	68497	57	956.14061563958
2	68500	57.01	956.27950463937
2	68501	57.02	956.41839363915
2	68520	57.03	956.55728263893
2	68521	57.04	956.69617163871
2	68522	57.05	956.8350606385
2	68541	57.06	956.97394963828
2	68542	57.07	957.11283863806
2	68543	57.08	957.25172763785
2	68544	57.09	957.39061663763
2	68545	57.1	957.52950563742
2	68548	57.11	957.66839463721
2	68549	57.12	957.80728363699
2	68568	57.13	957.94617263678
2	68569	57.14	958.08506163656
2	68570	57.15	958.22395063635
2	68589	57.16	958.36283963614
2	68590	57.17	958.50172863593
2	68591	57.18	958.64061763571
2	68592	57.19	958.7795066355
2	68593	57.2	958.91839563529
2	68596	57.21	959.05728463508
2	68597	57.22	959.19617363487
2	68616	57.23	959.33506263466
2	68617	57.24	959.47395163445
2	68618	57.25	959.61284063424
2	68637	57.26	959.75172963403
2	68638	57.27	959.89061863382
2	68639	57.28	960.02950763361
2	68640	57.29	960.1683966334
2	68641	57.3	960.30728563319
2	68644	57.31	960.44617463299
2	68645	57.32	960.58506363278
2	68664	57.33	960.72395263257
2	68665	57.34	960.86284163236
2	68666	57.35	961.00173063216
2	68685	57.36	961.14061963195
2	68686	57.37	961.27950863174
2	68687	57.38	961.41839763154
2	68688	57.39	961.55728663133
2	68689	57.4	961.69617563113
2	68692	57.41	961.83506463092
2	68693	57.42	961.97395363072
2	68712	57.43	962.11284263052
2	68713	57.44	962.25173163031
2	68714	57.45	962.39062063011
2	68733	57.46	962.52950962991
2	68734	57.47	962.6683986297
2	68735	57.48	962.8072876295
2	68736	57.49	962.9461766293
2	68737	57.5	963.0850656291
2	68740	57.51	963.22395462889
2	68741	57.52	963.36284362869
2	68760	57.53	963.50173262849
2	68761	57.54	963.64062162829
2	68762	57.55	963.77951062809
2	68781	57.56	963.91839962789
2	68782	57.57	964.05728862769
2	68783	57.58	964.19617762749
2	68784	57.59	964.33506662729
2	68785	57.6	964.4739556271
2	68788	57.61	964.6128446269
2	68789	57.62	964.7517336267
2	68808	57.63	964.8906226265
2	68809	57.64	965.0295116263
2	68810	57.65	965.16840062611
2	68829	57.66	965.30728962591
2	68830	57.67	965.44617862571
2	68831	57.68	965.58506762552
2	68832	57.69	965.72395662532
2	68833	57.7	965.86284562513
2	68836	57.71	966.00173462493
2	68837	57.72	966.14062362474
2	68856	57.73	966.27951262454
2	68857	57.74	966.41840162435
2	68858	57.75	966.55729062415
2	68877	57.76	966.69617962396
2	68878	57.77	966.83506862377
2	68879	57.78	966.97395762357
2	68880	57.79	967.11284662338
2	68881	57.8	967.25173562319
2	68884	57.81	967.39062462299
2	68885	57.82	967.5295136228
2	68904	57.83	967.66840262261
2	68905	57.84	967.80729162242
2	68906	57.85	967.94618062223
2	68925	57.86	968.08506962204
2	68926	57.87	968.22395862185
2	68927	57.88	968.36284762166
2	68928	57.89	968.50173662147
2	68929	57.9	968.64062562128
2	68932	57.91	968.77951462109
2	68933	57.92	968.9184036209
2	68952	57.93	969.05729262071
2	68953	57.94	969.19618162052
2	68954	57.95	969.33507062033
2	68973	57.96	969.47395962015
2	68974	57.97	969.61284861996
2	68975	57.98	969.75173761977
2	68976	57.99	969.89062661958
2	68979	58	970.0295156194
2	68982	58.01	970.16840461921
2	68983	58.02	970.30729361903
2	69002	58.03	970.44618261884
2	69003	58.04	970.58507161865
2	69004	58.05	970.72396061847
2	69023	58.06	970.86284961828
2	69024	58.07	971.0017386181
2	69025	58.08	971.14062761791
2	69026	58.09	971.27951661773
2	69027	58.1	971.41840561755
2	69030	58.11	971.55729461736
2	69031	58.12	971.69618361718
2	69050	58.13	971.835072617
2	69051	58.14	971.97396161681
2	69052	58.15	972.11285061663
2	69071	58.16	972.25173961645
2	69072	58.17	972.39062861627
2	69073	58.18	972.52951761609
2	69074	58.19	972.66840661591
2	69075	58.2	972.80729561573
2	69078	58.21	972.94618461554
2	69079	58.22	973.08507361536
2	69098	58.23	973.22396261518
2	69099	58.24	973.362851615
2	69100	58.25	973.50174061482
2	69119	58.26	973.64062961465
2	69120	58.27	973.77951861447
2	69121	58.28	973.91840761429
2	69122	58.29	974.05729661411
2	69123	58.3	974.19618561393
2	69126	58.31	974.33507461375
2	69127	58.32	974.47396361358
2	69146	58.33	974.6128526134
2	69147	58.34	974.75174161322
2	69148	58.35	974.89063061304
2	69167	58.36	975.02951961287
2	69168	58.37	975.16840861269
2	69169	58.38	975.30729761252
2	69170	58.39	975.44618661234
2	69171	58.4	975.58507561217
2	69174	58.41	975.72396461199
2	69175	58.42	975.86285361182
2	69194	58.43	976.00174261164
2	69195	58.44	976.14063161147
2	69196	58.45	976.27952061129
2	69215	58.46	976.41840961112
2	69216	58.47	976.55729861095
2	69217	58.48	976.69618761077
2	69218	58.49	976.8350766106
2	69219	58.5	976.97396561043
2	69222	58.51	977.11285461025
2	69223	58.52	977.25174361008
2	69242	58.53	977.39063260991
2	69243	58.54	977.52952160974
2	69244	58.55	977.66841060957
2	69263	58.56	977.8072996094
2	69264	58.57	977.94618860923
2	69265	58.58	978.08507760906
2	69266	58.59	978.22396660889
2	69267	58.6	978.36285560872
2	69270	58.61	978.50174460855
2	69271	58.62	978.64063360838
2	69290	58.63	978.77952260821
2	69291	58.64	978.91841160804
2	69292	58.65	979.05730060787
2	69311	58.66	979.1961896077
2	69312	58.67	979.33507860753
2	69313	58.68	979.47396760736
2	69314	58.69	979.6128566072
2	69315	58.7	979.75174560703
2	69318	58.71	979.89063460686
2	69319	58.72	980.0295236067
2	69338	58.73	980.16841260653
2	69339	58.74	980.30730160636
2	69340	58.75	980.4461906062
2	69359	58.76	980.58507960603
2	69360	58.77	980.72396860587
2	69361	58.78	980.8628576057
2	69362	58.79	981.00174660554
2	69363	58.8	981.14063560537
2	69366	58.81	981.27952460521
2	69367	58.82	981.41841360504
2	69386	58.83	981.55730260488
2	69387	58.84	981.69619160471
2	69388	58.85	981.83508060455
2	69407	58.86	981.97396960439
2	69408	58.87	982.11285860422
2	69409	58.88	982.25174760406
2	69410	58.89	982.3906366039
2	69411	58.9	982.52952560374
2	69414	58.91	982.66841460358
2	69415	58.92	982.80730360341
2	69434	58.93	982.94619260325
2	69435	58.94	983.08508160309
2	69436	58.95	983.22397060293
2	69455	58.96	983.36285960277
2	69456	58.97	983.50174860261
2	69457	58.98	983.64063760245
2	69458	58.99	983.77952660229
2	69461	59	983.91841560213
2	69464	59.01	984.05730460197
2	69465	59.02	984.19619360181
2	69484	59.03	984.33508260165
2	69485	59.04	984.47397160149
2	69486	59.05	984.61286060133
2	69505	59.06	984.75174960118
2	69506	59.07	984.89063860102
2	69507	59.08	985.02952760086
2	69508	59.09	985.1684166007
2	69509	59.1	985.30730560055
2	69512	59.11	985.44619460039
2	69513	59.12	985.58508360023
2	69532	59.13	985.72397260008
2	69533	59.14	985.86286159992
2	69534	59.15	986.00175059976
2	69553	59.16	986.14063959961
2	69554	59.17	986.27952859945
2	69555	59.18	986.4184175993
2	69556	59.19	986.55730659914
2	69557	59.2	986.69619559899
2	69560	59.21	986.83508459883
2	69561	59.22	986.97397359868
2	69580	59.23	987.11286259852
2	69581	59.24	987.25175159837
2	69582	59.25	987.39064059822
2	69601	59.26	987.52952959806
2	69602	59.27	987.66841859791
2	69603	59.28	987.80730759776
2	69604	59.29	987.94619659761
2	69605	59.3	988.08508559745
2	69608	59.31	988.2239745973
2	69609	59.32	988.36286359715
2	69628	59.33	988.501752597
2	69629	59.34	988.64064159685
2	69630	59.35	988.77953059669
2	69649	59.36	988.91841959654
2	69650	59.37	989.05730859639
2	69651	59.38	989.19619759624
2	69652	59.39	989.33508659609
2	69653	59.4	989.47397559594
2	69656	59.41	989.61286459579
2	69657	59.42	989.75175359564
2	69676	59.43	989.89064259549
2	69677	59.44	990.02953159534
2	69678	59.45	990.1684205952
2	69697	59.46	990.30730959505
2	69698	59.47	990.4461985949
2	69699	59.48	990.58508759475
2	69700	59.49	990.7239765946
2	69701	59.5	990.86286559446
2	69704	59.51	991.00175459431
2	69705	59.52	991.14064359416
2	69724	59.53	991.27953259401
2	69725	59.54	991.41842159387
2	69726	59.55	991.55731059372
2	69745	59.56	991.69619959357
2	69746	59.57	991.83508859343
2	69747	59.58	991.97397759328
2	69748	59.59	992.11286659314
2	69749	59.6	992.25175559299
2	69752	59.61	992.39064459285
2	69753	59.62	992.5295335927
2	69772	59.63	992.66842259256
2	69773	59.64	992.80731159241
2	69774	59.65	992.94620059227
2	69793	59.66	993.08508959212
2	69794	59.67	993.22397859198
2	69795	59.68	993.36286759183
2	69796	59.69	993.50175659169
2	69797	59.7	993.64064559155
2	69800	59.71	993.77953459141
2	69801	59.72	993.91842359126
2	69820	59.73	994.05731259112
2	69821	59.74	994.19620159098
2	69822	59.75	994.33509059084
2	69841	59.76	994.47397959069
2	69842	59.77	994.61286859055
2	69843	59.78	994.75175759041
2	69844	59.79	994.89064659027
2	69845	59.8	995.02953559013
2	69848	59.81	995.16842458999
2	69849	59.82	995.30731358985
2	69868	59.83	995.44620258971
2	69869	59.84	995.58509158957
2	69870	59.85	995.72398058943
2	69889	59.86	995.86286958929
2	69890	59.87	996.00175858915
2	69891	59.88	996.14064758901
2	69892	59.89	996.27953658887
2	69893	59.9	996.41842558873
2	69896	59.91	996.55731458859
2	69897	59.92	996.69620358845
2	69916	59.93	996.83509258832
2	69917	59.94	996.97398158818
2	69918	59.95	997.11287058804
2	69937	59.96	997.2517595879
2	69938	59.97	997.39064858777
2	69939	59.98	997.52953758763
2	69940	59.99	997.66842658749
2	69943	60	997.80731558736
2	69946	60.01	997.94620458722
2	69947	60.02	998.08509358708
2	69966	60.03	998.22398258695
2	69967	60.04	998.36287158681
2	69968	60.05	998.50176058668
2	69987	60.06	998.64064958654
2	69988	60.07	998.77953858641
2	69989	60.08	998.91842758627
2	69990	60.09	999.05731658614
2	69991	60.1	999.196205586
2	69994	60.11	999.33509458587
2	69995	60.12	999.47398358573
2	70014	60.13	999.6128725856
2	70015	60.14	999.75176158547
2	70016	60.15	999.89065058533
2	70035	60.16	1000.0295395852
2	70036	60.17	1000.1684285851
2	70037	60.18	1000.3073175849
2	70038	60.19	1000.4462065848
2	70039	60.2	1000.5850955847
2	70042	60.21	1000.7239845845
2	70043	60.22	1000.8628735844
2	70062	60.23	1001.0017625843
2	70063	60.24	1001.1406515841
2	70064	60.25	1001.279540584
2	70083	60.26	1001.4184295839
2	70084	60.27	1001.5573185837
2	70085	60.28	1001.6962075836
2	70086	60.29	1001.8350965835
2	70087	60.3	1001.9739855834
2	70090	60.31	1002.1128745832
2	70091	60.32	1002.2517635831
2	70110	60.33	1002.390652583
2	70111	60.34	1002.5295415828
2	70112	60.35	1002.6684305827
2	70131	60.36	1002.8073195826
2	70132	60.37	1002.9462085824
2	70133	60.38	1003.0850975823
2	70134	60.39	1003.2239865822
2	70135	60.4	1003.3628755821
2	70138	60.41	1003.5017645819
2	70139	60.42	1003.6406535818
2	70158	60.43	1003.7795425817
2	70159	60.44	1003.9184315816
2	70160	60.45	1004.0573205814
2	70179	60.46	1004.1962095813
2	70180	60.47	1004.3350985812
2	70181	60.48	1004.473987581
2	70182	60.49	1004.6128765809
2	70183	60.5	1004.7517655808
2	70186	60.51	1004.8906545807
2	70187	60.52	1005.0295435805
2	70206	60.53	1005.1684325804
2	70207	60.54	1005.3073215803
2	70208	60.55	1005.4462105802
2	70227	60.56	1005.58509958
2	70228	60.57	1005.7239885799
2	70229	60.58	1005.8628775798
2	70230	60.59	1006.0017665797
2	70231	60.6	1006.1406555795
2	70234	60.61	1006.2795445794
2	70235	60.62	1006.4184335793
2	70254	60.63	1006.5573225792
2	70255	60.64	1006.696211579
2	70256	60.65	1006.8351005789
2	70275	60.66	1006.9739895788
2	70276	60.67	1007.1128785787
2	70277	60.68	1007.2517675786
2	70278	60.69	1007.3906565784
2	70279	60.7	1007.5295455783
2	70282	60.71	1007.6684345782
2	70283	60.72	1007.8073235781
2	70302	60.73	1007.9462125779
2	70303	60.74	1008.0851015778
2	70304	60.75	1008.2239905777
2	70323	60.76	1008.3628795776
2	70324	60.77	1008.5017685775
2	70325	60.78	1008.6406575773
2	70326	60.79	1008.7795465772
2	70327	60.8	1008.9184355771
2	70330	60.81	1009.057324577
2	70331	60.82	1009.1962135769
2	70350	60.83	1009.3351025767
2	70351	60.84	1009.4739915766
2	70352	60.85	1009.6128805765
2	70371	60.86	1009.7517695764
2	70372	60.87	1009.8906585763
2	70373	60.88	1010.0295475761
2	70374	60.89	1010.168436576
2	70375	60.9	1010.3073255759
2	70378	60.91	1010.4462145758
2	70379	60.92	1010.5851035757
2	70398	60.93	1010.7239925755
2	70399	60.94	1010.8628815754
2	70400	60.95	1011.0017705753
2	70419	60.96	1011.1406595752
2	70420	60.97	1011.2795485751
2	70421	60.98	1011.418437575
2	70422	60.99	1011.5573265748
2	70425	61	1011.6962155747
2	70428	61.01	1011.8351045746
2	70429	61.02	1011.9739935745
2	70448	61.03	1012.1128825744
2	70449	61.04	1012.2517715743
2	70450	61.05	1012.3906605741
2	70469	61.06	1012.529549574
2	70470	61.07	1012.6684385739
2	70471	61.08	1012.8073275738
2	70472	61.09	1012.9462165737
2	70473	61.1	1013.0851055736
2	70476	61.11	1013.2239945734
2	70477	61.12	1013.3628835733
2	70496	61.13	1013.5017725732
2	70497	61.14	1013.6406615731
2	70498	61.15	1013.779550573
2	70517	61.16	1013.9184395729
2	70518	61.17	1014.0573285728
2	70519	61.18	1014.1962175726
2	70520	61.19	1014.3351065725
2	70521	61.2	1014.4739955724
2	70524	61.21	1014.6128845723
2	70525	61.22	1014.7517735722
2	70544	61.23	1014.8906625721
2	70545	61.24	1015.029551572
2	70546	61.25	1015.1684405719
2	70565	61.26	1015.3073295717
2	70566	61.27	1015.4462185716
2	70567	61.28	1015.5851075715
2	70568	61.29	1015.7239965714
2	70569	61.3	1015.8628855713
2	70572	61.31	1016.0017745712
2	70573	61.32	1016.1406660221
2	70584	61.33	1016.2795647778
2	70585	61.34	1016.4184755972
2	70586	61.35	1016.5574031456
2	70587	61.36	1016.6963519969
2	70588	61.37	1016.8353266355
2	70589	61.38	1016.9743314577
2	70590	61.39	1017.1133707735
2	70591	61.4	1017.2524488086
2	70593	61.41	1017.3915697058
2	70594	61.42	1017.5307375265
2	70605	61.43	1017.6699562528
2	70606	61.44	1017.8092297883
2	70607	61.45	1017.9485619604
2	70608	61.46	1018.0879565212
2	70609	61.47	1018.2274171495
2	70610	61.48	1018.3669474518
2	70611	61.49	1018.5065509638
2	70612	61.5	1018.646231152
2	70614	61.51	1018.785991415
2	70615	61.52	1018.9258350845
2	70626	61.53	1019.0657654273
2	70627	61.54	1019.2057856456
2	70628	61.55	1019.3458988793
2	70629	61.56	1019.4861082064
2	70630	61.57	1019.6264166448
2	70631	61.58	1019.766827153
2	70632	61.59	1019.9073426316
2	70633	61.6	1020.0479659244
2	70635	61.61	1020.1886998192
2	70636	61.62	1020.3295470495
2	70647	61.63	1020.4705102949
2	70648	61.64	1020.6115921824
2	70649	61.65	1020.7527952879
2	70650	61.66	1020.8941221364
2	70651	61.67	1021.0355752036
2	70652	61.68	1021.1771569165
2	70653	61.69	1021.3188696547
2	70654	61.7	1021.4607157509
2	70656	61.71	1021.6026974923
2	70657	61.72	1021.7448171211
2	70668	61.73	1021.8870768356
2	70669	61.74	1022.029478791
2	70670	61.75	1022.1720251002
2	70671	61.76	1022.3147178347
2	70672	61.77	1022.4575590254
2	70673	61.78	1022.6005506634
2	70674	61.79	1022.7436947006
2	70675	61.8	1022.8869930508
2	70677	61.81	1023.0304475902
2	70678	61.82	1023.1740601582
2	70689	61.83	1023.3178325583
2	70690	61.84	1023.4617665583
2	70691	61.85	1023.6058638917
2	70692	61.86	1023.7501262577
2	70693	61.87	1023.8945553225
2	70694	61.88	1024.0391527193
2	70695	61.89	1024.1839200495
2	70696	61.9	1024.328858883
2	70698	61.91	1024.473970759
2	70699	61.92	1024.6192571865
2	70710	61.93	1024.7647196448

