version 3
run OvertakeNoGui-188-20241104-10:01:48-91042
attr configname OvertakeNoGui
attr datetime 20241104-10:01:48
attr datetimef 20241104-100148
attr experiment OvertakeNoGui
attr inifile omnetpp.ini
attr iterationvars "$leaderHeadway=1.2, $leaderSpeed=50, $controller=0, $pCSpeed=53, $pDeltaC=510"
attr iterationvarsd leaderHeadway=1.2/leaderSpeed=50/controller=0/pCSpeed=53/pDeltaC=510
attr iterationvarsf leaderHeadway=1.2,leaderSpeed=50,controller=0,pCSpeed=53,pDeltaC=510-
attr measurement "$leaderHeadway=1.2, $leaderSpeed=50, $controller=0, $pCSpeed=53, $pDeltaC=510"
attr network Overtake
attr processid 91042
attr repetition 0
attr replication #0
attr resultdir results
attr runnumber 188
attr seedset 0
itervar controller 0
itervar leaderHeadway 1.2
itervar leaderSpeed 50
itervar pCSpeed 53
itervar pDeltaC 510
config image-path ../../../../veins/images;../../images
config *.manager.command "\"sumo\""
config *.manager.ignoreGuiCommands true
config *.node[*].scenario_type "\"OvertakeScenario\""
config output-vector-file results/OvertakeNoGui_53_510_0.vec
config output-scalar-file results/OvertakeNoGui_53_510_0.sca
config cmdenv-express-mode false
config cmdenv-autoflush true
config cmdenv-status-frequency 10s
config num-rngs 6
config cmdenv-output-file log.txt
config cmdenv-redirect-output true
config network Overtake
config debug-on-errors true
config print-undisposed true
config *.playgroundSizeX 65000m
config *.playgroundSizeY 25000m
config *.playgroundSizeZ 50m
config sim-time-limit "360 s"
config *.annotations.draw false
config *.obstacles.debug false
config *.world.useTorus false
config *.world.use2D false
config *.manager.updateInterval 0.01s
config *.manager.host "\"localhost\""
config *.manager.moduleType "\"vtypeauto=org.car2x.plexe.PlatoonCar vtypehuman=0\""
config *.manager.moduleName "\"vtypeauto=node vtypehuman=0\""
config *.manager.moduleDisplayString "\"\""
config *.manager.autoShutdown true
config *.manager.margin 25
config *.manager.order -1
config *.connectionManager.sendDirect true
config *.connectionManager.maxInterfDist 2600m
config *.connectionManager.drawMaxIntfDist false
config *.**.nic.mac1609_4.useServiceChannel false
config *.**.nic.mac1609_4.txPower 100mW
config *.**.nic.mac1609_4.bitrate 6Mbps
config *.**.nic.mac1609_4.useAcks true
config *.**.nic.mac1609_4.ackErrorRate 0.0
config *.**.nic.mac1609_4.frameErrorRate 0.0
config *.**.nic.phy80211p.minPowerLevel -94dBm
config *.**.nic.phy80211p.maxTXPower 100mW
config *.**.nic.phy80211p.useNoiseFloor true
config *.**.nic.phy80211p.noiseFloor -95dBm
config *.**.nic.phy80211p.decider "xmldoc(\"config.xml\")"
config *.**.nic.phy80211p.analogueModels "xmldoc(\"config.xml\")"
config *.**.nic.phy80211p.usePropagationDelay true
config *.node[*].mobility.x 0
config *.node[*].mobility.y 0
config *.node[*].mobility.z 1.895
config *.shockwave[*].mobility.x 0
config *.shockwave[*].mobility.y 0
config *.shockwave[*].mobility.z 1.895
config seed-set 0
config **.seed 0
config *.node[*].prot.rng-0 2
config *.node[*].appl.rng-0 3
config *.node[*].scenario.rng-0 4
config *.manager.configFile "\"./sumocfg/overtake.sumo.cfg\""
config *.manager.launchConfig "xmldoc(\"./sumocfg/overtake.launchd.xml\")"
config *.node[*].helper_type "\"PositionHelper\""
config *.node[*].scenario.caccC1 0.5
config *.node[*].scenario.caccXi 1
config *.node[*].scenario.caccOmegaN "0.2 Hz"
config *.node[*].scenario.caccSpacing "5 m"
config *.node[*].scenario.engineTau "0.5 s"
config *.node[*].scenario.ploegH "0.5 s"
config *.node[*].scenario.ploegKp 0.2
config *.node[*].scenario.ploegKd 0.7
config *.node[*].scenario.useRealisticEngine false
config *.node[*].scenario.targetController "\"CACC\""
config *.node[*].scenario.accHeadway "0.1 s"
config *.node[*].scenario.leaderHeadway "1.2 s"
config *.node[*].scenario.leaderSpeed "50 kmph"
config *.node[*].appl_type "\"OvertakeApp\""
config *.node[*].appl.*.scalar-recording true
config *.node[*].appl.*.vector-recording true
config *.node[*].appl.overtakeManeuver "\"OvertakeManeuver\""
config *.node[*].protocol_type "\"SimplePlatooningBeaconing\""
config *.node[*].prot.*.scalar-recording true
config *.node[*].prot.*.vector-recording true
config *.node[*].prot.beaconingInterval "0.1 s"
config *.node[*].prot.priority 4
config *.node[*].prot.packetSize 200
config *.node[*].prot.useControllerAcceleration true
config **.traffic_type "\"OvertakeTrafficManager\""
config **.traffic.platoonInsertTime "0.1 s"
config **.traffic.platooningVType "\"vtypeauto\""
config **.numericController 0
config **.traffic.platoonInsertDistance 5m
config **.traffic.platoonInsertHeadway 0s
config **.traffic.platoonLeaderHeadway 1.2s
config **.traffic.platoonASpeed 50kmph
config **.traffic.platoonBSpeed 100kmph
config **.traffic.platoonCSpeed 53kmph
config **.traffic.platoonSizeA 2
config **.traffic.platoonSizeB 1
config **.traffic.platoonSizeC 1
config **.traffic.initialPositionDeltaA 150
config **.traffic.initialPositionDeltaB 50
config **.traffic.initialPositionDeltaC 510
config **.traffic.controller "\"CACC\""
config **.scalar-recording true
config **.vector-recording true

vector 0 Overtake.node[0].mobility posx ETV
vector 1 Overtake.node[0].mobility posy ETV
vector 2 Overtake.node[1].mobility posx ETV
vector 3 Overtake.node[1].mobility posy ETV
vector 4 Overtake.node[2].mobility posx ETV
vector 5 Overtake.node[2].mobility posy ETV
vector 6 Overtake.node[3].mobility posx ETV
vector 7 Overtake.node[3].mobility posy ETV
vector 8 Overtake.node[0].mobility speed ETV
vector 9 Overtake.node[1].mobility speed ETV
vector 10 Overtake.node[2].mobility speed ETV
vector 11 Overtake.node[3].mobility speed ETV
vector 12 Overtake.node[0].mobility acceleration ETV
vector 13 Overtake.node[0].mobility co2emission ETV
vector 14 Overtake.node[1].mobility acceleration ETV
vector 15 Overtake.node[1].mobility co2emission ETV
vector 16 Overtake.node[2].mobility acceleration ETV
vector 17 Overtake.node[2].mobility co2emission ETV
vector 18 Overtake.node[3].mobility acceleration ETV
vector 19 Overtake.node[3].mobility co2emission ETV
vector 20 Overtake.node[0].appl distance ETV
vector 21 Overtake.node[0].appl relativeSpeed ETV
vector 22 Overtake.node[0].appl nodeId ETV
vector 23 Overtake.node[0].appl acceleration ETV
vector 24 Overtake.node[0].appl controllerAcceleration ETV
vector 25 Overtake.node[0].appl speed ETV
vector 26 Overtake.node[0].appl posx ETV
vector 27 Overtake.node[0].appl posy ETV
vector 28 Overtake.node[1].appl distance ETV
vector 29 Overtake.node[1].appl relativeSpeed ETV
vector 30 Overtake.node[1].appl nodeId ETV
vector 31 Overtake.node[1].appl acceleration ETV
vector 32 Overtake.node[1].appl controllerAcceleration ETV
vector 33 Overtake.node[1].appl speed ETV
vector 34 Overtake.node[1].appl posx ETV
vector 35 Overtake.node[1].appl posy ETV
vector 36 Overtake.node[2].appl distance ETV
vector 37 Overtake.node[2].appl relativeSpeed ETV
vector 38 Overtake.node[2].appl nodeId ETV
vector 39 Overtake.node[2].appl acceleration ETV
vector 40 Overtake.node[2].appl controllerAcceleration ETV
vector 41 Overtake.node[2].appl speed ETV
vector 42 Overtake.node[2].appl posx ETV
vector 43 Overtake.node[2].appl posy ETV
vector 44 Overtake.node[3].appl distance ETV
vector 45 Overtake.node[3].appl relativeSpeed ETV
vector 46 Overtake.node[3].appl nodeId ETV
vector 47 Overtake.node[3].appl acceleration ETV
vector 48 Overtake.node[3].appl controllerAcceleration ETV
vector 49 Overtake.node[3].appl speed ETV
vector 50 Overtake.node[3].appl posx ETV
vector 51 Overtake.node[3].appl posy ETV
vector 52 Overtake.node[1].prot leaderDelay ETV
vector 53 Overtake.node[1].prot leaderDelayId ETV
vector 54 Overtake.node[1].prot frontDelay ETV
vector 55 Overtake.node[1].prot frontDelayId ETV
vector 56 Overtake.node[0].prot nodeId ETV
vector 57 Overtake.node[0].prot busyTime ETV
vector 58 Overtake.node[0].prot collisions ETV
vector 59 Overtake.node[1].prot nodeId ETV
vector 60 Overtake.node[1].prot busyTime ETV
vector 61 Overtake.node[1].prot collisions ETV
vector 62 Overtake.node[2].prot nodeId ETV
vector 63 Overtake.node[2].prot busyTime ETV
vector 64 Overtake.node[2].prot collisions ETV
vector 65 Overtake.node[3].prot nodeId ETV
vector 66 Overtake.node[3].prot busyTime ETV
vector 67 Overtake.node[3].prot collisions ETV
48	26	0.21	0.00218518
48	176	0.31	0.00213419
48	326	0.41	0.00205408
48	476	0.51	0.00195152
48	626	0.61	0.00183238
48	776	0.71	0.00170178
48	926	0.81	0.00156412
48	1076	0.91	0.00142314
48	1230	1.01	0.00128196
48	1381	1.11	0.00114315
48	1532	1.21	0.00100877
48	1683	1.31	0.000880447
48	2046	1.41	0.000759381
48	2196	1.51	0.000646445
48	2346	1.61	0.000542204
48	2496	1.71	0.000446965
48	2646	1.81	0.000360819
48	2796	1.91	0.000283678
48	2950	2.01	0.000215307
48	3100	2.11	0.000155357
48	3250	2.21	0.000103391
48	3400	2.31	5.89069e-05
48	3763	2.41	2.13575e-05
48	3914	2.51	-9.82919e-06
48	4064	2.61	-3.52368e-05
48	4214	2.71	-5.54479e-05
48	4364	2.81	-7.10335e-05
48	4514	2.91	-8.25451e-05
48	4668	3.01	-9.05081e-05
48	4818	3.11	-9.54172e-05
48	4968	3.21	-9.7733e-05
48	5118	3.31	-9.78798e-05
48	5269	3.41	-9.62447e-05
48	5676	3.51	-9.31771e-05
48	5826	3.61	-8.89894e-05
48	5976	3.71	-8.39579e-05
48	6126	3.81	-7.83245e-05
48	6276	3.91	-7.22983e-05
48	6430	4.01	-6.6058e-05
48	6580	4.11	-5.9754e-05
48	6730	4.21	-5.35107e-05
48	6880	4.31	-4.74294e-05
48	7030	4.41	-4.15898e-05
48	7393	4.51	-3.60534e-05
48	7544	4.61	-3.0865e-05
48	7694	4.71	-2.60551e-05
48	7844	4.81	-2.16419e-05
48	7994	4.91	-1.76335e-05
48	8148	5.01	-1.40289e-05
48	8298	5.11	-1.08202e-05
48	8448	5.21	-7.99392e-06
48	8598	5.31	-5.532e-06
48	8748	5.41	-3.41315e-06
48	8899	5.51	-1.61374e-06
48	9262	5.61	-1.08654e-07
48	9412	5.71	1.12799e-06
48	9562	5.81	2.12224e-06
48	9712	5.91	2.89981e-06
48	9866	6.01	3.48567e-06
48	10016	6.11	3.90376e-06
48	10166	6.21	4.17673e-06
48	10316	6.31	4.32574e-06
48	10466	6.41	4.3704e-06
48	10616	6.51	4.32865e-06
48	11023	6.61	4.21676e-06
48	11174	6.71	4.04934e-06
48	11324	6.81	3.83937e-06
48	11474	6.91	3.59826e-06
48	11628	7.01	3.33592e-06
48	11778	7.11	3.06089e-06
48	11928	7.21	2.78036e-06
48	12078	7.31	2.50036e-06
48	12228	7.41	2.22582e-06
48	12378	7.51	1.96068e-06
48	12529	7.61	1.70801e-06
48	12892	7.71	1.47009e-06
48	13042	7.81	1.24855e-06
48	13192	7.91	1.04441e-06
48	13346	8.01	8.58219e-07
48	13496	8.11	6.90082e-07
48	13646	8.21	5.39774e-07
48	13796	8.31	4.06788e-07
48	13946	8.41	2.90397e-07
48	14096	8.51	1.89707e-07
48	14246	8.61	1.03704e-07
48	14609	8.71	3.12912e-08
48	14760	8.81	-2.86736e-08
48	14910	8.91	-7.73515e-08
48	15064	9.01	-1.15897e-07
48	15214	9.11	-1.45439e-07
48	15364	9.21	-1.67065e-07
48	15514	9.31	-1.81809e-07
48	15664	9.41	-1.90644e-07
48	15814	9.51	-1.94472e-07
48	15964	9.61	-1.94124e-07
48	16115	9.71	-1.90357e-07
48	16522	9.81	-1.83853e-07
48	16672	9.91	-1.7522e-07
48	16826	10.01	-1.64994e-07
48	16976	10.11	-1.53647e-07
48	17126	10.21	-1.41582e-07
48	17276	10.31	-1.29145e-07
48	17426	10.41	-1.16627e-07
48	17576	10.51	-1.04265e-07
48	17726	10.61	-9.22544e-08
48	17876	10.71	-8.07466e-08
48	18239	10.81	-6.98579e-08
48	18390	10.91	-5.96724e-08
48	18544	11.01	-5.02466e-08
48	18694	11.11	-4.16129e-08
48	18844	11.21	-3.37838e-08
48	18994	11.31	-2.67553e-08
48	19144	11.41	-2.05096e-08
48	19294	11.51	-1.5018e-08
48	19444	11.61	-1.02437e-08
48	19594	11.71	-6.14335e-09
48	19745	11.81	-2.66951e-09
48	20108	11.91	2.28262e-10
48	20262	12.01	2.6013e-09
48	20412	12.11	4.50129e-09
48	20562	12.21	5.97939e-09
48	20712	12.31	7.08464e-09
48	20862	12.41	7.86429e-09
48	21012	12.51	8.36273e-09
48	21162	12.61	8.62173e-09
48	21312	12.71	8.67946e-09
48	21462	12.81	8.57128e-09
48	21845	12.91	8.32863e-09
48	22000	13.01	7.98028e-09
48	22150	13.11	7.55147e-09
48	22300	13.21	7.06422e-09
48	22450	13.31	6.5377e-09
48	22600	13.41	5.98863e-09
48	22750	13.51	5.43068e-09
48	22900	13.61	4.87557e-09
48	23050	13.71	4.33271e-09
48	23200	13.81	3.80975e-09
48	23351	13.91	3.31237e-09
48	23738	14.01	2.84501e-09
48	23888	14.11	2.41052e-09
48	24038	14.21	2.01084e-09
48	24188	14.31	1.64686e-09
48	24338	14.41	1.31877e-09
48	24488	14.51	1.02602e-09
48	24638	14.61	7.67386e-10
48	24788	14.71	5.41434e-10
48	24938	14.81	3.4639e-10
48	25088	14.91	1.803e-10
48	25499	15.01	4.06786e-11
48	25650	15.11	-7.4607e-11
48	25800	15.21	-1.67866e-10
48	25950	15.31	-2.41229e-10
48	26100	15.41	-2.97184e-10
48	26250	15.51	-3.37863e-10
48	26400	15.61	-3.65041e-10
48	26550	15.71	-3.80851e-10
48	26700	15.81	-3.86891e-10
48	26850	15.91	-3.85114e-10
48	27004	16.01	-3.76588e-10
48	27154	16.11	-3.6291e-10
48	27304	16.21	-3.45146e-10
48	27454	16.31	-3.24363e-10
48	27604	16.41	-3.01625e-10
48	27754	16.51	-2.77467e-10
48	27904	16.61	-2.52598e-10
48	28054	16.71	-2.27729e-10
48	28204	16.81	-2.03215e-10
48	28354	16.91	-1.79412e-10
48	28508	17.01	-1.56675e-10
48	28658	17.11	-1.35358e-10
48	28808	17.21	-1.15286e-10
48	28958	17.31	-9.68114e-11
48	29108	17.41	-7.99361e-11
48	29258	17.51	-6.46594e-11
48	29408	17.61	-5.09814e-11
48	29558	17.71	-3.89022e-11
48	29708	17.81	-2.82441e-11
48	29858	17.91	-1.9007e-11
48	30012	18.01	-1.10134e-11
48	30162	18.11	-4.44089e-12
48	30312	18.21	1.24345e-12
48	30462	18.31	5.68434e-12
48	30612	18.41	9.41469e-12
48	30762	18.51	1.22569e-11
48	30912	18.61	1.43885e-11
48	31062	18.71	1.58096e-11
48	31212	18.81	1.66978e-11
48	31362	18.91	1.72307e-11
48	31516	19.01	1.72307e-11
48	31666	19.11	1.7053e-11
48	31816	19.21	1.65201e-11
48	31966	19.31	1.58096e-11
48	32116	19.41	1.5099e-11
48	32266	19.51	1.40332e-11
48	32416	19.61	1.29674e-11
48	32566	19.71	1.20792e-11
48	32716	19.81	1.10134e-11
48	32866	19.91	9.9476e-12
48	33020	20.01	8.88178e-12
48	33170	20.11	7.99361e-12
48	33320	20.21	6.92779e-12
48	33470	20.31	5.86198e-12
48	33620	20.41	4.9738e-12
48	33770	20.51	4.08562e-12
48	33920	20.61	3.19744e-12
48	34070	20.71	2.4869e-12
48	34220	20.81	1.77636e-12
48	34370	20.91	1.24345e-12
48	34524	21.01	7.10543e-13
48	34674	21.11	1.77636e-13
48	34824	21.21	-1.77636e-13
48	34974	21.31	-7.10543e-13
48	35124	21.41	-1.06581e-12
48	35274	21.51	-1.42109e-12
48	35424	21.61	-1.59872e-12
48	35574	21.71	-1.95399e-12
48	35724	21.81	-2.13163e-12
48	35874	21.91	-2.30926e-12
48	36028	22.01	-2.4869e-12
48	36178	22.11	-2.66454e-12
48	36328	22.21	-2.84217e-12
48	36478	22.31	-3.01981e-12
48	36628	22.41	-3.19744e-12
48	36778	22.51	-3.37508e-12
48	36928	22.61	-3.37508e-12
48	37078	22.71	-3.55271e-12
48	37228	22.81	-3.55271e-12
48	37378	22.91	-3.73035e-12
48	37532	23.01	-3.73035e-12
48	37682	23.11	-3.90799e-12
48	37832	23.21	-3.90799e-12
48	37982	23.31	-3.90799e-12
48	38132	23.41	-3.90799e-12
48	38282	23.51	-4.08562e-12
48	38432	23.61	-4.08562e-12
48	38582	23.71	-4.08562e-12
48	38732	23.81	-4.08562e-12
48	38882	23.91	-4.08562e-12
48	39036	24.01	-4.26326e-12
48	39186	24.11	-4.26326e-12
48	39336	24.21	-4.26326e-12
48	39486	24.31	-4.26326e-12
48	39636	24.41	-4.26326e-12
48	39786	24.51	-4.26326e-12
48	39936	24.61	-4.26326e-12
48	40086	24.71	-4.26326e-12
48	40236	24.81	-4.26326e-12
48	40386	24.91	-4.26326e-12
48	40540	25.01	-4.44089e-12
48	40690	25.11	-4.44089e-12
48	40840	25.21	-4.44089e-12
48	40990	25.31	-4.44089e-12
48	41140	25.41	-4.44089e-12
48	41290	25.51	-4.44089e-12
48	41440	25.61	-4.44089e-12
48	41590	25.71	-4.44089e-12
48	41740	25.81	-4.44089e-12
48	41890	25.91	-4.44089e-12
48	42044	26.01	-4.44089e-12
48	42194	26.11	-4.44089e-12
48	42344	26.21	-4.44089e-12
48	42494	26.31	-4.44089e-12
48	42644	26.41	-4.44089e-12
48	42794	26.51	-4.44089e-12
48	42944	26.61	-4.44089e-12
48	43095	26.71	-4.44089e-12
48	43245	26.81	-4.44089e-12
48	43395	26.91	-4.44089e-12
48	43549	27.01	-4.44089e-12
48	43699	27.11	-4.44089e-12
48	43849	27.21	-4.44089e-12
48	43999	27.31	-4.44089e-12
48	44149	27.41	-4.44089e-12
48	44299	27.51	-4.44089e-12
48	44449	27.61	-4.44089e-12
48	44599	27.71	-4.44089e-12
48	44749	27.81	-4.44089e-12
48	44899	27.91	-4.44089e-12
48	45053	28.01	-4.44089e-12
48	45203	28.11	-4.44089e-12
48	45353	28.21	-4.44089e-12
48	45503	28.31	-4.44089e-12
48	45653	28.41	-4.44089e-12
48	45803	28.51	-4.44089e-12
48	45953	28.61	-4.44089e-12
48	46103	28.71	-4.44089e-12
48	46253	28.81	-4.44089e-12
48	46403	28.91	-4.44089e-12
48	46557	29.01	-4.44089e-12
48	46707	29.11	-4.44089e-12
48	46857	29.21	-4.44089e-12
48	47007	29.31	-4.44089e-12
48	47157	29.41	-4.44089e-12
48	47307	29.51	-4.44089e-12
48	47457	29.61	-4.44089e-12
48	47607	29.71	-4.44089e-12
48	47757	29.81	-4.44089e-12
48	47907	29.91	-4.44089e-12
48	48061	30.01	-4.44089e-12
48	48211	30.11	-4.44089e-12
48	48361	30.21	-4.44089e-12
48	48511	30.31	-4.44089e-12
48	48661	30.41	-4.44089e-12
48	48811	30.51	-4.44089e-12
48	48961	30.61	-4.44089e-12
48	49111	30.71	-4.44089e-12
48	49261	30.81	-4.44089e-12
48	49411	30.91	-4.44089e-12
48	49565	31.01	-4.44089e-12
48	49715	31.11	-4.44089e-12
48	49865	31.21	-4.44089e-12
48	50015	31.31	-4.44089e-12
48	50165	31.41	-4.44089e-12
48	50315	31.51	-4.44089e-12
48	50465	31.61	-4.44089e-12
48	50615	31.71	-4.44089e-12
48	50765	31.81	-4.44089e-12
48	50915	31.91	-4.44089e-12
48	51069	32.01	-4.44089e-12
48	51219	32.11	-4.44089e-12
48	51369	32.21	-4.44089e-12
48	51519	32.31	-4.44089e-12
48	51669	32.41	-4.44089e-12
48	51819	32.51	-4.44089e-12
48	51969	32.61	-4.44089e-12
48	52119	32.71	-4.44089e-12
48	52269	32.81	-4.44089e-12
48	52419	32.91	-4.44089e-12
48	52573	33.01	-4.44089e-12
48	52723	33.11	-4.44089e-12
48	52873	33.21	-4.44089e-12
48	53023	33.31	-4.44089e-12
47	26	0.21	0.000358191
47	176	0.31	0.000681704
47	326	0.41	0.00093487
47	476	0.51	0.00112579
47	626	0.61	0.00126221
47	776	0.71	0.00135149
47	926	0.81	0.00140049
47	1076	0.91	0.00141557
47	1230	1.01	0.00140255
47	1381	1.11	0.00136671
47	1532	1.21	0.0013128
47	1683	1.31	0.00124502
47	2046	1.41	0.0011671
47	2196	1.51	0.00108223
47	2346	1.61	0.000993208
47	2496	1.71	0.000902362
47	2646	1.81	0.000811651
47	2796	1.91	0.000722679
47	2950	2.01	0.000636729
47	3100	2.11	0.0005548
47	3250	2.21	0.000477639
47	3400	2.31	0.000405773
47	3763	2.41	0.00033954
47	3914	2.51	0.000279116
47	4064	2.61	0.000224541
47	4214	2.71	0.000175743
47	4364	2.81	0.00013256
47	4514	2.91	9.47571e-05
47	4668	3.01	6.2046e-05
47	4818	3.11	3.40986e-05
47	4968	3.21	1.05605e-05
47	5118	3.31	-8.93844e-06
47	5269	3.41	-2.4774e-05
47	5676	3.51	-3.73203e-05
47	5826	3.61	-4.69433e-05
47	5976	3.71	-5.39956e-05
47	6126	3.81	-5.88124e-05
47	6276	3.91	-6.1709e-05
47	6430	4.01	-6.29785e-05
47	6580	4.11	-6.28903e-05
47	6730	4.21	-6.169e-05
47	6880	4.31	-5.95988e-05
47	7030	4.41	-5.68144e-05
47	7393	4.51	-5.35112e-05
47	7544	4.61	-4.98416e-05
47	7694	4.71	-4.59373e-05
47	7844	4.81	-4.19105e-05
47	7994	4.91	-3.78555e-05
47	8148	5.01	-3.38499e-05
47	8298	5.11	-2.99569e-05
47	8448	5.21	-2.62259e-05
47	8598	5.31	-2.26948e-05
47	8748	5.41	-1.93911e-05
47	8899	5.51	-1.6333e-05
47	9262	5.61	-1.35314e-05
47	9412	5.71	-1.09904e-05
47	9562	5.81	-8.70882e-06
47	9712	5.91	-6.6809e-06
47	9866	6.01	-4.89747e-06
47	10016	6.11	-3.3466e-06
47	10166	6.21	-2.01432e-06
47	10316	6.31	-8.85256e-07
47	10466	6.41	5.68454e-08
47	10616	6.51	8.28678e-07
47	11023	6.61	1.44699e-06
47	11174	6.71	1.92826e-06
47	11324	6.81	2.28849e-06
47	11474	6.91	2.54296e-06
47	11628	7.01	2.7061e-06
47	11778	7.11	2.79139e-06
47	11928	7.21	2.8113e-06
47	12078	7.31	2.77721e-06
47	12228	7.41	2.69943e-06
47	12378	7.51	2.58721e-06
47	12529	7.61	2.44874e-06
47	12892	7.71	2.29123e-06
47	13042	7.81	2.12092e-06
47	13192	7.91	1.94317e-06
47	13346	8.01	1.7625e-06
47	13496	8.11	1.58267e-06
47	13646	8.21	1.40677e-06
47	13796	8.31	1.23723e-06
47	13946	8.41	1.07596e-06
47	14096	8.51	9.24365e-07
47	14246	8.61	7.83425e-07
47	14609	8.71	6.53753e-07
47	14760	8.81	5.35652e-07
47	14910	8.91	4.29161e-07
47	15064	9.01	3.34103e-07
47	15214	9.11	2.5013e-07
47	15364	9.21	1.76757e-07
47	15514	9.31	1.13395e-07
47	15664	9.41	5.93825e-08
47	15814	9.51	1.40082e-08
47	15964	9.61	-2.34655e-08
47	16115	9.71	-5.37865e-08
47	16522	9.81	-7.76954e-08
47	16672	9.91	-9.59155e-08
47	16826	10.01	-1.09142e-07
47	16976	10.11	-1.18035e-07
47	17126	10.21	-1.23213e-07
47	17276	10.31	-1.25251e-07
47	17426	10.41	-1.24676e-07
47	17576	10.51	-1.21969e-07
47	17726	10.61	-1.1756e-07
47	17876	10.71	-1.11835e-07
47	18239	10.81	-1.05132e-07
47	18390	10.91	-9.77479e-08
47	18544	11.01	-8.99371e-08
47	18694	11.11	-8.19167e-08
47	18844	11.21	-7.38678e-08
47	18994	11.31	-6.59401e-08
47	19144	11.41	-5.82538e-08
47	19294	11.51	-5.09036e-08
47	19444	11.61	-4.39611e-08
47	19594	11.71	-3.7477e-08
47	19745	11.81	-3.14856e-08
47	20108	11.91	-2.60057e-08
47	20262	12.01	-2.10441e-08
47	20412	12.11	-1.65965e-08
47	20562	12.21	-1.26501e-08
47	20712	12.31	-9.1859e-09
47	20862	12.41	-6.17906e-09
47	21012	12.51	-3.60174e-09
47	21162	12.61	-1.42268e-09
47	21312	12.71	3.90443e-10
47	21462	12.81	1.87068e-09
47	21845	12.91	3.05143e-09
47	22000	13.01	3.96536e-09
47	22150	13.11	4.64411e-09
47	22300	13.21	5.11751e-09
47	22450	13.31	5.41416e-09
47	22600	13.41	5.56053e-09
47	22750	13.51	5.5806e-09
47	22900	13.61	5.49729e-09
47	23050	13.71	5.32996e-09
47	23200	13.81	5.09726e-09
47	23351	13.91	4.81499e-09
47	23738	14.01	4.49702e-09
47	23888	14.11	4.15543e-09
47	24038	14.21	3.80052e-09
47	24188	14.31	3.44169e-09
47	24338	14.41	3.08535e-09
47	24488	14.51	2.73772e-09
47	24638	14.61	2.40341e-09
47	24788	14.71	2.08633e-09
47	24938	14.81	1.78844e-09
47	25088	14.91	1.51221e-09
47	25499	15.01	1.25837e-09
47	25650	15.11	1.02744e-09
47	25800	15.21	8.19789e-10
47	25950	15.31	6.34515e-10
47	26100	15.41	4.71267e-10
47	26250	15.51	3.28981e-10
47	26400	15.61	2.06235e-10
47	26550	15.71	1.02318e-10
47	26700	15.81	1.45661e-11
47	26850	15.91	-5.73763e-11
47	27004	16.01	-1.15463e-10
47	27154	16.11	-1.61116e-10
47	27304	16.21	-1.95577e-10
47	27454	16.31	-2.20446e-10
47	27604	16.41	-2.36788e-10
47	27754	16.51	-2.46025e-10
47	27904	16.61	-2.49223e-10
47	28054	16.71	-2.47447e-10
47	28204	16.81	-2.41407e-10
47	28354	16.91	-2.3217e-10
47	28508	17.01	-2.20446e-10
47	28658	17.11	-2.06768e-10
47	28808	17.21	-1.91847e-10
47	28958	17.31	-1.75859e-10
47	29108	17.41	-1.59872e-10
47	29258	17.51	-1.43885e-10
47	29408	17.61	-1.27898e-10
47	29558	17.71	-1.12976e-10
47	29708	17.81	-9.87654e-11
47	29858	17.91	-8.49099e-11
47	30012	18.01	-7.24754e-11
47	30162	18.11	-6.07514e-11
47	30312	18.21	-5.00933e-11
47	30462	18.31	-4.05009e-11
47	30612	18.41	-3.16192e-11
47	30762	18.51	-2.43361e-11
47	30912	18.61	-1.72307e-11
47	31062	18.71	-1.1724e-11
47	31212	18.81	-6.39488e-12
47	31362	18.91	-2.4869e-12
47	31516	19.01	1.06581e-12
47	31666	19.11	4.08562e-12
47	31816	19.21	5.86198e-12
47	31966	19.31	7.63833e-12
47	32116	19.41	9.41469e-12
47	32266	19.51	1.01252e-11
47	32416	19.61	1.01252e-11
47	32566	19.71	1.01252e-11
47	32716	19.81	1.01252e-11
47	32866	19.91	1.01252e-11
47	33020	20.01	1.01252e-11
47	33170	20.11	1.01252e-11
47	33320	20.21	1.01252e-11
47	33470	20.31	1.01252e-11
47	33620	20.41	9.41469e-12
47	33770	20.51	8.52651e-12
47	33920	20.61	7.63833e-12
47	34070	20.71	6.92779e-12
47	34220	20.81	6.21725e-12
47	34370	20.91	5.68434e-12
47	34524	21.01	5.15143e-12
47	34674	21.11	4.61853e-12
47	34824	21.21	4.26326e-12
47	34974	21.31	3.73035e-12
47	35124	21.41	3.37508e-12
47	35274	21.51	3.01981e-12
47	35424	21.61	2.84217e-12
47	35574	21.71	2.4869e-12
47	35724	21.81	2.30926e-12
47	35874	21.91	2.13163e-12
47	36028	22.01	1.95399e-12
47	36178	22.11	1.77636e-12
47	36328	22.21	1.59872e-12
47	36478	22.31	1.42109e-12
47	36628	22.41	1.24345e-12
47	36778	22.51	1.06581e-12
47	36928	22.61	1.06581e-12
47	37078	22.71	8.88178e-13
47	37228	22.81	8.88178e-13
47	37378	22.91	7.10543e-13
47	37532	23.01	7.10543e-13
47	37682	23.11	5.32907e-13
47	37832	23.21	5.32907e-13
47	37982	23.31	5.32907e-13
47	38132	23.41	5.32907e-13
47	38282	23.51	3.55271e-13
47	38432	23.61	3.55271e-13
47	38582	23.71	3.55271e-13
47	38732	23.81	3.55271e-13
47	38882	23.91	3.55271e-13
47	39036	24.01	1.77636e-13
47	39186	24.11	1.77636e-13
47	39336	24.21	1.77636e-13
47	39486	24.31	1.77636e-13
47	39636	24.41	1.77636e-13
47	39786	24.51	1.77636e-13
47	39936	24.61	1.77636e-13
47	40086	24.71	1.77636e-13
47	40236	24.81	1.77636e-13
47	40386	24.91	1.77636e-13
47	40540	25.01	0
47	40690	25.11	0
47	40840	25.21	0
47	40990	25.31	0
47	41140	25.41	0
47	41290	25.51	0
47	41440	25.61	0
47	41590	25.71	0
47	41740	25.81	0
47	41890	25.91	0
47	42044	26.01	0
47	42194	26.11	0
47	42344	26.21	0
47	42494	26.31	0
47	42644	26.41	0
47	42794	26.51	0
47	42944	26.61	0
47	43095	26.71	0
47	43245	26.81	0
47	43395	26.91	0
47	43549	27.01	0
47	43699	27.11	0
47	43849	27.21	0
47	43999	27.31	0
47	44149	27.41	0
47	44299	27.51	0
47	44449	27.61	0
47	44599	27.71	0
47	44749	27.81	0
47	44899	27.91	0
47	45053	28.01	0
47	45203	28.11	0
47	45353	28.21	0
47	45503	28.31	0
47	45653	28.41	0
47	45803	28.51	0
47	45953	28.61	0
47	46103	28.71	0
47	46253	28.81	0
47	46403	28.91	0
47	46557	29.01	0
47	46707	29.11	0
47	46857	29.21	0
47	47007	29.31	0
47	47157	29.41	0
47	47307	29.51	0
47	47457	29.61	0
47	47607	29.71	0
47	47757	29.81	0
47	47907	29.91	0
47	48061	30.01	0
47	48211	30.11	0
47	48361	30.21	0
47	48511	30.31	0
47	48661	30.41	0
47	48811	30.51	0
47	48961	30.61	0
47	49111	30.71	0
47	49261	30.81	0
47	49411	30.91	0
47	49565	31.01	0
47	49715	31.11	0
47	49865	31.21	0
47	50015	31.31	0
47	50165	31.41	0
47	50315	31.51	0
47	50465	31.61	0
47	50615	31.71	0
47	50765	31.81	0
47	50915	31.91	0
47	51069	32.01	0
47	51219	32.11	0
47	51369	32.21	0
47	51519	32.31	0
47	51669	32.41	0
47	51819	32.51	0
47	51969	32.61	0
47	52119	32.71	0
47	52269	32.81	0
47	52419	32.91	0
47	52573	33.01	0
47	52723	33.11	0
47	52873	33.21	0
47	53023	33.31	0
51	26	0.21	1.6
51	176	0.31	1.6
51	326	0.41	1.6
51	476	0.51	1.6
51	626	0.61	1.6
51	776	0.71	1.6
51	926	0.81	1.6
51	1076	0.91	1.6
51	1230	1.01	1.6
51	1381	1.11	1.6
51	1532	1.21	1.6
51	1683	1.31	1.6
51	2046	1.41	1.6
51	2196	1.51	1.6
51	2346	1.61	1.6
51	2496	1.71	1.6
51	2646	1.81	1.6
51	2796	1.91	1.6
51	2950	2.01	1.6
51	3100	2.11	1.6
51	3250	2.21	1.6
51	3400	2.31	1.6
51	3763	2.41	1.6
51	3914	2.51	1.6
51	4064	2.61	1.6
51	4214	2.71	1.6
51	4364	2.81	1.6
51	4514	2.91	1.6
51	4668	3.01	1.6
51	4818	3.11	1.6
51	4968	3.21	1.6
51	5118	3.31	1.6
51	5269	3.41	1.6
51	5676	3.51	1.6
51	5826	3.61	1.6
51	5976	3.71	1.6
51	6126	3.81	1.6
51	6276	3.91	1.6
51	6430	4.01	1.6
51	6580	4.11	1.6
51	6730	4.21	1.6
51	6880	4.31	1.6
51	7030	4.41	1.6
51	7393	4.51	1.6
51	7544	4.61	1.6
51	7694	4.71	1.6
51	7844	4.81	1.6
51	7994	4.91	1.6
51	8148	5.01	1.6
51	8298	5.11	1.6
51	8448	5.21	1.6
51	8598	5.31	1.6
51	8748	5.41	1.6
51	8899	5.51	1.6
51	9262	5.61	1.6
51	9412	5.71	1.6
51	9562	5.81	1.6
51	9712	5.91	1.6
51	9866	6.01	1.6
51	10016	6.11	1.6
51	10166	6.21	1.6
51	10316	6.31	1.6
51	10466	6.41	1.6
51	10616	6.51	1.6
51	11023	6.61	1.6
51	11174	6.71	1.6
51	11324	6.81	1.6
51	11474	6.91	1.6
51	11628	7.01	1.6
51	11778	7.11	1.6
51	11928	7.21	1.6
51	12078	7.31	1.6
51	12228	7.41	1.6
51	12378	7.51	1.6
51	12529	7.61	1.6
51	12892	7.71	1.6
51	13042	7.81	1.6
51	13192	7.91	1.6
51	13346	8.01	1.6
51	13496	8.11	1.6
51	13646	8.21	1.6
51	13796	8.31	1.6
51	13946	8.41	1.6
51	14096	8.51	1.6
51	14246	8.61	1.6
51	14609	8.71	1.6
51	14760	8.81	1.6
51	14910	8.91	1.6
51	15064	9.01	1.6
51	15214	9.11	1.6
51	15364	9.21	1.6
51	15514	9.31	1.6
51	15664	9.41	1.6
51	15814	9.51	1.6
51	15964	9.61	1.6
51	16115	9.71	1.6
51	16522	9.81	1.6
51	16672	9.91	1.6
51	16826	10.01	1.6
51	16976	10.11	1.6
51	17126	10.21	1.6
51	17276	10.31	1.6
51	17426	10.41	1.6
51	17576	10.51	1.6
51	17726	10.61	1.6
51	17876	10.71	1.6
51	18239	10.81	1.6
51	18390	10.91	1.6
51	18544	11.01	1.6
51	18694	11.11	1.6
51	18844	11.21	1.6
51	18994	11.31	1.6
51	19144	11.41	1.6
51	19294	11.51	1.6
51	19444	11.61	1.6
51	19594	11.71	1.6
51	19745	11.81	1.6
51	20108	11.91	1.6
51	20262	12.01	1.6
51	20412	12.11	1.6
51	20562	12.21	1.6
51	20712	12.31	1.6
51	20862	12.41	1.6
51	21012	12.51	1.6
51	21162	12.61	1.6
51	21312	12.71	1.6
51	21462	12.81	1.6
51	21845	12.91	1.6
51	22000	13.01	1.6
51	22150	13.11	1.6
51	22300	13.21	1.6
51	22450	13.31	1.6
51	22600	13.41	1.6
51	22750	13.51	1.6
51	22900	13.61	1.6
51	23050	13.71	1.6
51	23200	13.81	1.6
51	23351	13.91	1.6
51	23738	14.01	1.6
51	23888	14.11	1.6
51	24038	14.21	1.6
51	24188	14.31	1.6
51	24338	14.41	1.6
51	24488	14.51	1.6
51	24638	14.61	1.6
51	24788	14.71	1.6
51	24938	14.81	1.6
51	25088	14.91	1.6
51	25499	15.01	1.6
51	25650	15.11	1.6
51	25800	15.21	1.6
51	25950	15.31	1.6
51	26100	15.41	1.6
51	26250	15.51	1.6
51	26400	15.61	1.6
51	26550	15.71	1.6
51	26700	15.81	1.6
51	26850	15.91	1.6
51	27004	16.01	1.6
51	27154	16.11	1.6
51	27304	16.21	1.6
51	27454	16.31	1.6
51	27604	16.41	1.6
51	27754	16.51	1.6
51	27904	16.61	1.6
51	28054	16.71	1.6
51	28204	16.81	1.6
51	28354	16.91	1.6
51	28508	17.01	1.6
51	28658	17.11	1.6
51	28808	17.21	1.6
51	28958	17.31	1.6
51	29108	17.41	1.6
51	29258	17.51	1.6
51	29408	17.61	1.6
51	29558	17.71	1.6
51	29708	17.81	1.6
51	29858	17.91	1.6
51	30012	18.01	1.6
51	30162	18.11	1.6
51	30312	18.21	1.6
51	30462	18.31	1.6
51	30612	18.41	1.6
51	30762	18.51	1.6
51	30912	18.61	1.6
51	31062	18.71	1.6
51	31212	18.81	1.6
51	31362	18.91	1.6
51	31516	19.01	1.6
51	31666	19.11	1.6
51	31816	19.21	1.6
51	31966	19.31	1.6
51	32116	19.41	1.6
51	32266	19.51	1.6
51	32416	19.61	1.6
51	32566	19.71	1.6
51	32716	19.81	1.6
51	32866	19.91	1.6
51	33020	20.01	1.6
51	33170	20.11	1.6
51	33320	20.21	1.6
51	33470	20.31	1.6
51	33620	20.41	1.6
51	33770	20.51	1.6
51	33920	20.61	1.6
51	34070	20.71	1.6
51	34220	20.81	1.6
51	34370	20.91	1.6
51	34524	21.01	1.6
51	34674	21.11	1.6
51	34824	21.21	1.6
51	34974	21.31	1.6
51	35124	21.41	1.6
51	35274	21.51	1.6
51	35424	21.61	1.6
51	35574	21.71	1.6
51	35724	21.81	1.6
51	35874	21.91	1.6
51	36028	22.01	1.6
51	36178	22.11	1.6
51	36328	22.21	1.6
51	36478	22.31	1.6
51	36628	22.41	1.6
51	36778	22.51	1.6
51	36928	22.61	1.6
51	37078	22.71	1.6
51	37228	22.81	1.6
51	37378	22.91	1.6
51	37532	23.01	1.6
51	37682	23.11	1.6
51	37832	23.21	1.6
51	37982	23.31	1.6
51	38132	23.41	1.6
51	38282	23.51	1.6
51	38432	23.61	1.6
51	38582	23.71	1.6
51	38732	23.81	1.6
51	38882	23.91	1.6
51	39036	24.01	1.6
51	39186	24.11	1.6
51	39336	24.21	1.6
51	39486	24.31	1.6
51	39636	24.41	1.6
51	39786	24.51	1.6
51	39936	24.61	1.6
51	40086	24.71	1.6
51	40236	24.81	1.6
51	40386	24.91	1.6
51	40540	25.01	1.6
51	40690	25.11	1.6
51	40840	25.21	1.6
51	40990	25.31	1.6
51	41140	25.41	1.6
51	41290	25.51	1.6
51	41440	25.61	1.6
51	41590	25.71	1.6
51	41740	25.81	1.6
51	41890	25.91	1.6
51	42044	26.01	1.6
51	42194	26.11	1.6
51	42344	26.21	1.6
51	42494	26.31	1.6
51	42644	26.41	1.6
51	42794	26.51	1.6
51	42944	26.61	1.6
51	43095	26.71	1.6
51	43245	26.81	1.6
51	43395	26.91	1.6
51	43549	27.01	1.6
51	43699	27.11	1.6
51	43849	27.21	1.6
51	43999	27.31	1.6
51	44149	27.41	1.6
51	44299	27.51	1.6
51	44449	27.61	1.6
51	44599	27.71	1.6
51	44749	27.81	1.6
51	44899	27.91	1.6
51	45053	28.01	1.6
51	45203	28.11	1.6
51	45353	28.21	1.6
51	45503	28.31	1.6
51	45653	28.41	1.6
51	45803	28.51	1.6
51	45953	28.61	1.6
51	46103	28.71	1.6
51	46253	28.81	1.6
51	46403	28.91	1.6
51	46557	29.01	1.6
51	46707	29.11	1.6
51	46857	29.21	1.6
51	47007	29.31	1.6
51	47157	29.41	1.6
51	47307	29.51	1.6
51	47457	29.61	1.6
51	47607	29.71	1.6
51	47757	29.81	1.6
51	47907	29.91	1.6
51	48061	30.01	1.6
51	48211	30.11	1.6
51	48361	30.21	1.6
51	48511	30.31	1.6
51	48661	30.41	1.6
51	48811	30.51	1.6
51	48961	30.61	1.6
51	49111	30.71	1.6
51	49261	30.81	1.6
51	49411	30.91	1.6
51	49565	31.01	1.6
51	49715	31.11	1.6
51	49865	31.21	1.6
51	50015	31.31	1.6
51	50165	31.41	1.6
51	50315	31.51	1.6
51	50465	31.61	1.6
51	50615	31.71	1.6
51	50765	31.81	1.6
51	50915	31.91	1.6
51	51069	32.01	1.6
51	51219	32.11	1.6
51	51369	32.21	1.6
51	51519	32.31	1.6
51	51669	32.41	1.6
51	51819	32.51	1.6
51	51969	32.61	1.6
51	52119	32.71	1.6
51	52269	32.81	1.6
51	52419	32.91	1.6
51	52573	33.01	1.6
51	52723	33.11	1.6
51	52873	33.21	1.6
51	53023	33.31	1.6
50	26	0.21	488.675
50	176	0.31	487.203
50	326	0.41	485.731
50	476	0.51	484.259
50	626	0.61	482.787
50	776	0.71	481.315
50	926	0.81	479.843
50	1076	0.91	478.371
50	1230	1.01	476.899
50	1381	1.11	475.427
50	1532	1.21	473.955
50	1683	1.31	472.483
50	2046	1.41	471.01
50	2196	1.51	469.538
50	2346	1.61	468.066
50	2496	1.71	466.594
50	2646	1.81	465.122
50	2796	1.91	463.65
50	2950	2.01	462.177
50	3100	2.11	460.705
50	3250	2.21	459.233
50	3400	2.31	457.761
50	3763	2.41	456.289
50	3914	2.51	454.816
50	4064	2.61	453.344
50	4214	2.71	451.872
50	4364	2.81	450.4
50	4514	2.91	448.927
50	4668	3.01	447.455
50	4818	3.11	445.983
50	4968	3.21	444.511
50	5118	3.31	443.038
50	5269	3.41	441.566
50	5676	3.51	440.094
50	5826	3.61	438.622
50	5976	3.71	437.15
50	6126	3.81	435.677
50	6276	3.91	434.205
50	6430	4.01	432.733
50	6580	4.11	431.261
50	6730	4.21	429.788
50	6880	4.31	428.316
50	7030	4.41	426.844
50	7393	4.51	425.372
50	7544	4.61	423.9
50	7694	4.71	422.427
50	7844	4.81	420.955
50	7994	4.91	419.483
50	8148	5.01	418.011
50	8298	5.11	416.538
50	8448	5.21	415.066
50	8598	5.31	413.594
50	8748	5.41	412.122
50	8899	5.51	410.65
50	9262	5.61	409.177
50	9412	5.71	407.705
50	9562	5.81	406.233
50	9712	5.91	404.761
50	9866	6.01	403.288
50	10016	6.11	401.816
50	10166	6.21	400.344
50	10316	6.31	398.872
50	10466	6.41	397.4
50	10616	6.51	395.927
50	11023	6.61	394.455
50	11174	6.71	392.983
50	11324	6.81	391.511
50	11474	6.91	390.038
50	11628	7.01	388.566
50	11778	7.11	387.094
50	11928	7.21	385.622
50	12078	7.31	384.15
50	12228	7.41	382.677
50	12378	7.51	381.205
50	12529	7.61	379.733
50	12892	7.71	378.261
50	13042	7.81	376.788
50	13192	7.91	375.316
50	13346	8.01	373.844
50	13496	8.11	372.372
50	13646	8.21	370.9
50	13796	8.31	369.427
50	13946	8.41	367.955
50	14096	8.51	366.483
50	14246	8.61	365.011
50	14609	8.71	363.538
50	14760	8.81	362.066
50	14910	8.91	360.594
50	15064	9.01	359.122
50	15214	9.11	357.65
50	15364	9.21	356.177
50	15514	9.31	354.705
50	15664	9.41	353.233
50	15814	9.51	351.761
50	15964	9.61	350.289
50	16115	9.71	348.816
50	16522	9.81	347.344
50	16672	9.91	345.872
50	16826	10.01	344.4
50	16976	10.11	342.927
50	17126	10.21	341.455
50	17276	10.31	339.983
50	17426	10.41	338.511
50	17576	10.51	337.039
50	17726	10.61	335.566
50	17876	10.71	334.094
50	18239	10.81	332.622
50	18390	10.91	331.15
50	18544	11.01	329.677
50	18694	11.11	328.205
50	18844	11.21	326.733
50	18994	11.31	325.261
50	19144	11.41	323.789
50	19294	11.51	322.316
50	19444	11.61	320.844
50	19594	11.71	319.372
50	19745	11.81	317.9
50	20108	11.91	316.427
50	20262	12.01	314.955
50	20412	12.11	313.483
50	20562	12.21	312.011
50	20712	12.31	310.539
50	20862	12.41	309.066
50	21012	12.51	307.594
50	21162	12.61	306.122
50	21312	12.71	304.65
50	21462	12.81	303.177
50	21845	12.91	301.705
50	22000	13.01	300.233
50	22150	13.11	298.761
50	22300	13.21	297.289
50	22450	13.31	295.816
50	22600	13.41	294.344
50	22750	13.51	292.872
50	22900	13.61	291.4
50	23050	13.71	289.927
50	23200	13.81	288.455
50	23351	13.91	286.983
50	23738	14.01	285.511
50	23888	14.11	284.039
50	24038	14.21	282.566
50	24188	14.31	281.094
50	24338	14.41	279.622
50	24488	14.51	278.15
50	24638	14.61	276.678
50	24788	14.71	275.205
50	24938	14.81	273.733
50	25088	14.91	272.261
50	25499	15.01	270.789
50	25650	15.11	269.316
50	25800	15.21	267.844
50	25950	15.31	266.372
50	26100	15.41	264.9
50	26250	15.51	263.428
50	26400	15.61	261.955
50	26550	15.71	260.483
50	26700	15.81	259.011
50	26850	15.91	257.539
50	27004	16.01	256.066
50	27154	16.11	254.594
50	27304	16.21	253.122
50	27454	16.31	251.65
50	27604	16.41	250.178
50	27754	16.51	248.705
50	27904	16.61	247.233
50	28054	16.71	245.761
50	28204	16.81	244.289
50	28354	16.91	242.816
50	28508	17.01	241.344
50	28658	17.11	239.872
50	28808	17.21	238.4
50	28958	17.31	236.928
50	29108	17.41	235.455
50	29258	17.51	233.983
50	29408	17.61	232.511
50	29558	17.71	231.039
50	29708	17.81	229.566
50	29858	17.91	228.094
50	30012	18.01	226.622
50	30162	18.11	225.15
50	30312	18.21	223.678
50	30462	18.31	222.205
50	30612	18.41	220.733
50	30762	18.51	219.261
50	30912	18.61	217.789
50	31062	18.71	216.316
50	31212	18.81	214.844
50	31362	18.91	213.372
50	31516	19.01	211.9
50	31666	19.11	210.428
50	31816	19.21	208.955
50	31966	19.31	207.483
50	32116	19.41	206.011
50	32266	19.51	204.539
50	32416	19.61	203.067
50	32566	19.71	201.594
50	32716	19.81	200.122
50	32866	19.91	198.65
50	33020	20.01	197.178
50	33170	20.11	195.705
50	33320	20.21	194.233
50	33470	20.31	192.761
50	33620	20.41	191.289
50	33770	20.51	189.817
50	33920	20.61	188.344
50	34070	20.71	186.872
50	34220	20.81	185.4
50	34370	20.91	183.928
50	34524	21.01	182.455
50	34674	21.11	180.983
50	34824	21.21	179.511
50	34974	21.31	178.039
50	35124	21.41	176.567
50	35274	21.51	175.094
50	35424	21.61	173.622
50	35574	21.71	172.15
50	35724	21.81	170.678
50	35874	21.91	169.205
50	36028	22.01	167.733
50	36178	22.11	166.261
50	36328	22.21	164.789
50	36478	22.31	163.317
50	36628	22.41	161.844
50	36778	22.51	160.372
50	36928	22.61	158.9
50	37078	22.71	157.428
50	37228	22.81	155.955
50	37378	22.91	154.483
50	37532	23.01	153.011
50	37682	23.11	151.539
50	37832	23.21	150.067
50	37982	23.31	148.594
50	38132	23.41	147.122
50	38282	23.51	145.65
50	38432	23.61	144.178
50	38582	23.71	142.705
50	38732	23.81	141.233
50	38882	23.91	139.761
50	39036	24.01	138.289
50	39186	24.11	136.817
50	39336	24.21	135.344
50	39486	24.31	133.872
50	39636	24.41	132.4
50	39786	24.51	130.928
50	39936	24.61	129.456
50	40086	24.71	127.983
50	40236	24.81	126.511
50	40386	24.91	125.039
50	40540	25.01	123.567
50	40690	25.11	122.094
50	40840	25.21	120.622
50	40990	25.31	119.15
50	41140	25.41	117.678
50	41290	25.51	116.206
50	41440	25.61	114.733
50	41590	25.71	113.261
50	41740	25.81	111.789
50	41890	25.91	110.317
50	42044	26.01	108.844
50	42194	26.11	107.372
50	42344	26.21	105.9
50	42494	26.31	104.428
50	42644	26.41	102.956
50	42794	26.51	101.483
50	42944	26.61	100.011
50	43095	26.71	98.5389
50	43245	26.81	97.0667
50	43395	26.91	95.5945
50	43549	27.01	94.1222
50	43699	27.11	92.65
50	43849	27.21	91.1778
50	43999	27.31	89.7056
50	44149	27.41	88.2334
50	44299	27.51	86.7611
50	44449	27.61	85.2889
50	44599	27.71	83.8167
50	44749	27.81	82.3445
50	44899	27.91	80.8723
50	45053	28.01	79.4
50	45203	28.11	77.9278
50	45353	28.21	76.4556
50	45503	28.31	74.9834
50	45653	28.41	73.5112
50	45803	28.51	72.0389
50	45953	28.61	70.5667
50	46103	28.71	69.0945
50	46253	28.81	67.6223
50	46403	28.91	66.1501
50	46557	29.01	64.6778
50	46707	29.11	63.2056
50	46857	29.21	61.7334
50	47007	29.31	60.2612
50	47157	29.41	58.789
50	47307	29.51	57.3167
50	47457	29.61	55.8445
50	47607	29.71	54.3723
50	47757	29.81	52.9001
50	47907	29.91	51.4279
50	48061	30.01	49.9556
50	48211	30.11	48.4834
50	48361	30.21	47.0112
50	48511	30.31	45.539
50	48661	30.41	44.0668
50	48811	30.51	42.5945
50	48961	30.61	41.1223
50	49111	30.71	39.6501
50	49261	30.81	38.1779
50	49411	30.91	36.7057
50	49565	31.01	35.2334
50	49715	31.11	33.7612
50	49865	31.21	32.289
50	50015	31.31	30.8168
50	50165	31.41	29.3446
50	50315	31.51	27.8723
50	50465	31.61	26.4001
50	50615	31.71	24.9279
50	50765	31.81	23.4557
50	50915	31.91	21.9835
50	51069	32.01	20.5112
50	51219	32.11	19.039
50	51369	32.21	17.5668
50	51519	32.31	16.0946
50	51669	32.41	14.6224
50	51819	32.51	13.1501
50	51969	32.61	11.6779
50	52119	32.71	10.2057
50	52269	32.81	8.73347
50	52419	32.91	7.26125
50	52573	33.01	5.78903
50	52723	33.11	4.31681
50	52873	33.21	2.84459
50	53023	33.31	1.37237
49	26	0.21	14.72
49	176	0.31	14.7201
49	326	0.41	14.7202
49	476	0.51	14.7203
49	626	0.61	14.7204
49	776	0.71	14.7205
49	926	0.81	14.7206
49	1076	0.91	14.7208
49	1230	1.01	14.7209
49	1381	1.11	14.7211
49	1532	1.21	14.7212
49	1683	1.31	14.7213
49	2046	1.41	14.7215
49	2196	1.51	14.7216
49	2346	1.61	14.7217
49	2496	1.71	14.7218
49	2646	1.81	14.7218
49	2796	1.91	14.7219
49	2950	2.01	14.722
49	3100	2.11	14.7221
49	3250	2.21	14.7221
49	3400	2.31	14.7221
49	3763	2.41	14.7222
49	3914	2.51	14.7222
49	4064	2.61	14.7222
49	4214	2.71	14.7223
49	4364	2.81	14.7223
49	4514	2.91	14.7223
49	4668	3.01	14.7223
49	4818	3.11	14.7223
49	4968	3.21	14.7223
49	5118	3.31	14.7223
49	5269	3.41	14.7223
49	5676	3.51	14.7223
49	5826	3.61	14.7223
49	5976	3.71	14.7223
49	6126	3.81	14.7223
49	6276	3.91	14.7223
49	6430	4.01	14.7223
49	6580	4.11	14.7223
49	6730	4.21	14.7223
49	6880	4.31	14.7222
49	7030	4.41	14.7222
49	7393	4.51	14.7222
49	7544	4.61	14.7222
49	7694	4.71	14.7222
49	7844	4.81	14.7222
49	7994	4.91	14.7222
49	8148	5.01	14.7222
49	8298	5.11	14.7222
49	8448	5.21	14.7222
49	8598	5.31	14.7222
49	8748	5.41	14.7222
49	8899	5.51	14.7222
49	9262	5.61	14.7222
49	9412	5.71	14.7222
49	9562	5.81	14.7222
49	9712	5.91	14.7222
49	9866	6.01	14.7222
49	10016	6.11	14.7222
49	10166	6.21	14.7222
49	10316	6.31	14.7222
49	10466	6.41	14.7222
49	10616	6.51	14.7222
49	11023	6.61	14.7222
49	11174	6.71	14.7222
49	11324	6.81	14.7222
49	11474	6.91	14.7222
49	11628	7.01	14.7222
49	11778	7.11	14.7222
49	11928	7.21	14.7222
49	12078	7.31	14.7222
49	12228	7.41	14.7222
49	12378	7.51	14.7222
49	12529	7.61	14.7222
49	12892	7.71	14.7222
49	13042	7.81	14.7222
49	13192	7.91	14.7222
49	13346	8.01	14.7222
49	13496	8.11	14.7222
49	13646	8.21	14.7222
49	13796	8.31	14.7222
49	13946	8.41	14.7222
49	14096	8.51	14.7222
49	14246	8.61	14.7222
49	14609	8.71	14.7222
49	14760	8.81	14.7222
49	14910	8.91	14.7222
49	15064	9.01	14.7222
49	15214	9.11	14.7222
49	15364	9.21	14.7222
49	15514	9.31	14.7222
49	15664	9.41	14.7222
49	15814	9.51	14.7222
49	15964	9.61	14.7222
49	16115	9.71	14.7222
49	16522	9.81	14.7222
49	16672	9.91	14.7222
49	16826	10.01	14.7222
49	16976	10.11	14.7222
49	17126	10.21	14.7222
49	17276	10.31	14.7222
49	17426	10.41	14.7222
49	17576	10.51	14.7222
49	17726	10.61	14.7222
49	17876	10.71	14.7222
49	18239	10.81	14.7222
49	18390	10.91	14.7222
49	18544	11.01	14.7222
49	18694	11.11	14.7222
49	18844	11.21	14.7222
49	18994	11.31	14.7222
49	19144	11.41	14.7222
49	19294	11.51	14.7222
49	19444	11.61	14.7222
49	19594	11.71	14.7222
49	19745	11.81	14.7222
49	20108	11.91	14.7222
49	20262	12.01	14.7222
49	20412	12.11	14.7222
49	20562	12.21	14.7222
49	20712	12.31	14.7222
49	20862	12.41	14.7222
49	21012	12.51	14.7222
49	21162	12.61	14.7222
49	21312	12.71	14.7222
49	21462	12.81	14.7222
49	21845	12.91	14.7222
49	22000	13.01	14.7222
49	22150	13.11	14.7222
49	22300	13.21	14.7222
49	22450	13.31	14.7222
49	22600	13.41	14.7222
49	22750	13.51	14.7222
49	22900	13.61	14.7222
49	23050	13.71	14.7222
49	23200	13.81	14.7222
49	23351	13.91	14.7222
49	23738	14.01	14.7222
49	23888	14.11	14.7222
49	24038	14.21	14.7222
49	24188	14.31	14.7222
49	24338	14.41	14.7222
49	24488	14.51	14.7222
49	24638	14.61	14.7222
49	24788	14.71	14.7222
49	24938	14.81	14.7222
49	25088	14.91	14.7222
49	25499	15.01	14.7222
49	25650	15.11	14.7222
49	25800	15.21	14.7222
49	25950	15.31	14.7222
49	26100	15.41	14.7222
49	26250	15.51	14.7222
49	26400	15.61	14.7222
49	26550	15.71	14.7222
49	26700	15.81	14.7222
49	26850	15.91	14.7222
49	27004	16.01	14.7222
49	27154	16.11	14.7222
49	27304	16.21	14.7222
49	27454	16.31	14.7222
49	27604	16.41	14.7222
49	27754	16.51	14.7222
49	27904	16.61	14.7222
49	28054	16.71	14.7222
49	28204	16.81	14.7222
49	28354	16.91	14.7222
49	28508	17.01	14.7222
49	28658	17.11	14.7222
49	28808	17.21	14.7222
49	28958	17.31	14.7222
49	29108	17.41	14.7222
49	29258	17.51	14.7222
49	29408	17.61	14.7222
49	29558	17.71	14.7222
49	29708	17.81	14.7222
49	29858	17.91	14.7222
49	30012	18.01	14.7222
49	30162	18.11	14.7222
49	30312	18.21	14.7222
49	30462	18.31	14.7222
49	30612	18.41	14.7222
49	30762	18.51	14.7222
49	30912	18.61	14.7222
49	31062	18.71	14.7222
49	31212	18.81	14.7222
49	31362	18.91	14.7222
49	31516	19.01	14.7222
49	31666	19.11	14.7222
49	31816	19.21	14.7222
49	31966	19.31	14.7222
49	32116	19.41	14.7222
49	32266	19.51	14.7222
49	32416	19.61	14.7222
49	32566	19.71	14.7222
49	32716	19.81	14.7222
49	32866	19.91	14.7222
49	33020	20.01	14.7222
49	33170	20.11	14.7222
49	33320	20.21	14.7222
49	33470	20.31	14.7222
49	33620	20.41	14.7222
49	33770	20.51	14.7222
49	33920	20.61	14.7222
49	34070	20.71	14.7222
49	34220	20.81	14.7222
49	34370	20.91	14.7222
49	34524	21.01	14.7222
49	34674	21.11	14.7222
49	34824	21.21	14.7222
49	34974	21.31	14.7222
49	35124	21.41	14.7222
49	35274	21.51	14.7222
49	35424	21.61	14.7222
49	35574	21.71	14.7222
49	35724	21.81	14.7222
49	35874	21.91	14.7222
49	36028	22.01	14.7222
49	36178	22.11	14.7222
49	36328	22.21	14.7222
49	36478	22.31	14.7222
49	36628	22.41	14.7222
49	36778	22.51	14.7222
49	36928	22.61	14.7222
49	37078	22.71	14.7222
49	37228	22.81	14.7222
49	37378	22.91	14.7222
49	37532	23.01	14.7222
49	37682	23.11	14.7222
49	37832	23.21	14.7222
49	37982	23.31	14.7222
49	38132	23.41	14.7222
49	38282	23.51	14.7222
49	38432	23.61	14.7222
49	38582	23.71	14.7222
49	38732	23.81	14.7222
49	38882	23.91	14.7222
49	39036	24.01	14.7222
49	39186	24.11	14.7222
49	39336	24.21	14.7222
49	39486	24.31	14.7222
49	39636	24.41	14.7222
49	39786	24.51	14.7222
49	39936	24.61	14.7222
49	40086	24.71	14.7222
49	40236	24.81	14.7222
49	40386	24.91	14.7222
49	40540	25.01	14.7222
49	40690	25.11	14.7222
49	40840	25.21	14.7222
49	40990	25.31	14.7222
49	41140	25.41	14.7222
49	41290	25.51	14.7222
49	41440	25.61	14.7222
49	41590	25.71	14.7222
49	41740	25.81	14.7222
49	41890	25.91	14.7222
49	42044	26.01	14.7222
49	42194	26.11	14.7222
49	42344	26.21	14.7222
49	42494	26.31	14.7222
49	42644	26.41	14.7222
49	42794	26.51	14.7222
49	42944	26.61	14.7222
49	43095	26.71	14.7222
49	43245	26.81	14.7222
49	43395	26.91	14.7222
49	43549	27.01	14.7222
49	43699	27.11	14.7222
49	43849	27.21	14.7222
49	43999	27.31	14.7222
49	44149	27.41	14.7222
49	44299	27.51	14.7222
49	44449	27.61	14.7222
49	44599	27.71	14.7222
49	44749	27.81	14.7222
49	44899	27.91	14.7222
49	45053	28.01	14.7222
49	45203	28.11	14.7222
49	45353	28.21	14.7222
49	45503	28.31	14.7222
49	45653	28.41	14.7222
49	45803	28.51	14.7222
49	45953	28.61	14.7222
49	46103	28.71	14.7222
49	46253	28.81	14.7222
49	46403	28.91	14.7222
49	46557	29.01	14.7222
49	46707	29.11	14.7222
49	46857	29.21	14.7222
49	47007	29.31	14.7222
49	47157	29.41	14.7222
49	47307	29.51	14.7222
49	47457	29.61	14.7222
49	47607	29.71	14.7222
49	47757	29.81	14.7222
49	47907	29.91	14.7222
49	48061	30.01	14.7222
49	48211	30.11	14.7222
49	48361	30.21	14.7222
49	48511	30.31	14.7222
49	48661	30.41	14.7222
49	48811	30.51	14.7222
49	48961	30.61	14.7222
49	49111	30.71	14.7222
49	49261	30.81	14.7222
49	49411	30.91	14.7222
49	49565	31.01	14.7222
49	49715	31.11	14.7222
49	49865	31.21	14.7222
49	50015	31.31	14.7222
49	50165	31.41	14.7222
49	50315	31.51	14.7222
49	50465	31.61	14.7222
49	50615	31.71	14.7222
49	50765	31.81	14.7222
49	50915	31.91	14.7222
49	51069	32.01	14.7222
49	51219	32.11	14.7222
49	51369	32.21	14.7222
49	51519	32.31	14.7222
49	51669	32.41	14.7222
49	51819	32.51	14.7222
49	51969	32.61	14.7222
49	52119	32.71	14.7222
49	52269	32.81	14.7222
49	52419	32.91	14.7222
49	52573	33.01	14.7222
49	52723	33.11	14.7222
49	52873	33.21	14.7222
49	53023	33.31	14.7222
45	26	0.21	0
45	176	0.31	0
45	326	0.41	0
45	476	0.51	0
45	626	0.61	0
45	776	0.71	0
45	926	0.81	0
45	1076	0.91	0
45	1230	1.01	0
45	1381	1.11	0
45	1532	1.21	0
45	1683	1.31	0
45	2046	1.41	0
45	2196	1.51	0
45	2346	1.61	0
45	2496	1.71	0
45	2646	1.81	0
45	2796	1.91	0
45	2950	2.01	0
45	3100	2.11	0
45	3250	2.21	0
45	3400	2.31	0
45	3763	2.41	0
45	3914	2.51	0
45	4064	2.61	0
45	4214	2.71	0
45	4364	2.81	0
45	4514	2.91	0
45	4668	3.01	0
45	4818	3.11	0
45	4968	3.21	0
45	5118	3.31	0
45	5269	3.41	0
45	5676	3.51	0
45	5826	3.61	0
45	5976	3.71	0
45	6126	3.81	0
45	6276	3.91	0
45	6430	4.01	0
45	6580	4.11	0
45	6730	4.21	0
45	6880	4.31	0
45	7030	4.41	0
45	7393	4.51	0
45	7544	4.61	0
45	7694	4.71	0
45	7844	4.81	0
45	7994	4.91	0
45	8148	5.01	0
45	8298	5.11	0
45	8448	5.21	0
45	8598	5.31	0
45	8748	5.41	0
45	8899	5.51	0
45	9262	5.61	0
45	9412	5.71	0
45	9562	5.81	0
45	9712	5.91	0
45	9866	6.01	0
45	10016	6.11	0
45	10166	6.21	0
45	10316	6.31	0
45	10466	6.41	0
45	10616	6.51	0
45	11023	6.61	0
45	11174	6.71	0
45	11324	6.81	0
45	11474	6.91	0
45	11628	7.01	0
45	11778	7.11	0
45	11928	7.21	0
45	12078	7.31	0
45	12228	7.41	0
45	12378	7.51	0
45	12529	7.61	0
45	12892	7.71	0
45	13042	7.81	0
45	13192	7.91	0
45	13346	8.01	0
45	13496	8.11	0
45	13646	8.21	0
45	13796	8.31	0
45	13946	8.41	0
45	14096	8.51	0
45	14246	8.61	0
45	14609	8.71	0
45	14760	8.81	0
45	14910	8.91	0
45	15064	9.01	0
45	15214	9.11	0
45	15364	9.21	0
45	15514	9.31	0
45	15664	9.41	0
45	15814	9.51	0
45	15964	9.61	0
45	16115	9.71	0
45	16522	9.81	0
45	16672	9.91	0
45	16826	10.01	0
45	16976	10.11	0
45	17126	10.21	0
45	17276	10.31	0
45	17426	10.41	0
45	17576	10.51	0
45	17726	10.61	0
45	17876	10.71	0
45	18239	10.81	0
45	18390	10.91	0
45	18544	11.01	0
45	18694	11.11	0
45	18844	11.21	0
45	18994	11.31	0
45	19144	11.41	0
45	19294	11.51	0
45	19444	11.61	0
45	19594	11.71	0
45	19745	11.81	0
45	20108	11.91	0
45	20262	12.01	0
45	20412	12.11	0
45	20562	12.21	0
45	20712	12.31	0
45	20862	12.41	0
45	21012	12.51	0
45	21162	12.61	0
45	21312	12.71	0
45	21462	12.81	0
45	21845	12.91	0
45	22000	13.01	0
45	22150	13.11	0
45	22300	13.21	0
45	22450	13.31	0
45	22600	13.41	0
45	22750	13.51	0
45	22900	13.61	0
45	23050	13.71	0
45	23200	13.81	0
45	23351	13.91	0
45	23738	14.01	0
45	23888	14.11	0
45	24038	14.21	0
45	24188	14.31	0
45	24338	14.41	0
45	24488	14.51	0
45	24638	14.61	0
45	24788	14.71	0
45	24938	14.81	0
45	25088	14.91	0
45	25499	15.01	0
45	25650	15.11	0
45	25800	15.21	0
45	25950	15.31	0
45	26100	15.41	0
45	26250	15.51	0
45	26400	15.61	0
45	26550	15.71	0
45	26700	15.81	0
45	26850	15.91	0
45	27004	16.01	0
45	27154	16.11	0
45	27304	16.21	0
45	27454	16.31	0
45	27604	16.41	0
45	27754	16.51	0
45	27904	16.61	0
45	28054	16.71	0
45	28204	16.81	0
45	28354	16.91	0
45	28508	17.01	0
45	28658	17.11	0
45	28808	17.21	0
45	28958	17.31	0
45	29108	17.41	0
45	29258	17.51	0
45	29408	17.61	0
45	29558	17.71	0
45	29708	17.81	0
45	29858	17.91	0
45	30012	18.01	0
45	30162	18.11	0
45	30312	18.21	0
45	30462	18.31	0
45	30612	18.41	0
45	30762	18.51	0
45	30912	18.61	0
45	31062	18.71	0
45	31212	18.81	0
45	31362	18.91	0
45	31516	19.01	0
45	31666	19.11	0
45	31816	19.21	0
45	31966	19.31	0
45	32116	19.41	0
45	32266	19.51	0
45	32416	19.61	0
45	32566	19.71	0
45	32716	19.81	0
45	32866	19.91	0
45	33020	20.01	0
45	33170	20.11	0
45	33320	20.21	0
45	33470	20.31	0
45	33620	20.41	0
45	33770	20.51	0
45	33920	20.61	0
45	34070	20.71	0
45	34220	20.81	0
45	34370	20.91	0
45	34524	21.01	0
45	34674	21.11	0
45	34824	21.21	0
45	34974	21.31	0
45	35124	21.41	0
45	35274	21.51	0
45	35424	21.61	0
45	35574	21.71	0
45	35724	21.81	0
45	35874	21.91	0
45	36028	22.01	0
45	36178	22.11	0
45	36328	22.21	0
45	36478	22.31	0
45	36628	22.41	0
45	36778	22.51	0
45	36928	22.61	0
45	37078	22.71	0
45	37228	22.81	0
45	37378	22.91	0
45	37532	23.01	0
45	37682	23.11	0
45	37832	23.21	0
45	37982	23.31	0
45	38132	23.41	0
45	38282	23.51	0
45	38432	23.61	0
45	38582	23.71	0
45	38732	23.81	0
45	38882	23.91	0
45	39036	24.01	0
45	39186	24.11	0
45	39336	24.21	0
45	39486	24.31	0
45	39636	24.41	0
45	39786	24.51	0
45	39936	24.61	0
45	40086	24.71	0
45	40236	24.81	0
45	40386	24.91	0
45	40540	25.01	0
45	40690	25.11	0
45	40840	25.21	0
45	40990	25.31	0
45	41140	25.41	0
45	41290	25.51	0
45	41440	25.61	0
45	41590	25.71	0
45	41740	25.81	0
45	41890	25.91	0
45	42044	26.01	0
45	42194	26.11	0
45	42344	26.21	0
45	42494	26.31	0
45	42644	26.41	0
45	42794	26.51	0
45	42944	26.61	0
45	43095	26.71	0
45	43245	26.81	0
45	43395	26.91	0
45	43549	27.01	0
45	43699	27.11	0
45	43849	27.21	0
45	43999	27.31	0
45	44149	27.41	0
45	44299	27.51	0
45	44449	27.61	0
45	44599	27.71	0
45	44749	27.81	0
45	44899	27.91	0
45	45053	28.01	0
45	45203	28.11	0
45	45353	28.21	0
45	45503	28.31	0
45	45653	28.41	0
45	45803	28.51	0
45	45953	28.61	0
45	46103	28.71	0
45	46253	28.81	0
45	46403	28.91	0
45	46557	29.01	0
45	46707	29.11	0
45	46857	29.21	0
45	47007	29.31	0
45	47157	29.41	0
45	47307	29.51	0
45	47457	29.61	0
45	47607	29.71	0
45	47757	29.81	0
45	47907	29.91	0
45	48061	30.01	0
45	48211	30.11	0
45	48361	30.21	0
45	48511	30.31	0
45	48661	30.41	0
45	48811	30.51	0
45	48961	30.61	0
45	49111	30.71	0
45	49261	30.81	0
45	49411	30.91	0
45	49565	31.01	0
45	49715	31.11	0
45	49865	31.21	0
45	50015	31.31	0
45	50165	31.41	0
45	50315	31.51	0
45	50465	31.61	0
45	50615	31.71	0
45	50765	31.81	0
45	50915	31.91	0
45	51069	32.01	0
45	51219	32.11	0
45	51369	32.21	0
45	51519	32.31	0
45	51669	32.41	0
45	51819	32.51	0
45	51969	32.61	0
45	52119	32.71	0
45	52269	32.81	0
45	52419	32.91	0
45	52573	33.01	0
45	52723	33.11	0
45	52873	33.21	0
45	53023	33.31	0
44	26	0.21	-1
44	176	0.31	-1
44	326	0.41	-1
44	476	0.51	-1
44	626	0.61	-1
44	776	0.71	-1
44	926	0.81	-1
44	1076	0.91	-1
44	1230	1.01	-1
44	1381	1.11	-1
44	1532	1.21	-1
44	1683	1.31	-1
44	2046	1.41	-1
44	2196	1.51	-1
44	2346	1.61	-1
44	2496	1.71	-1
44	2646	1.81	-1
44	2796	1.91	-1
44	2950	2.01	-1
44	3100	2.11	-1
44	3250	2.21	-1
44	3400	2.31	-1
44	3763	2.41	-1
44	3914	2.51	-1
44	4064	2.61	-1
44	4214	2.71	-1
44	4364	2.81	-1
44	4514	2.91	-1
44	4668	3.01	-1
44	4818	3.11	-1
44	4968	3.21	-1
44	5118	3.31	-1
44	5269	3.41	-1
44	5676	3.51	-1
44	5826	3.61	-1
44	5976	3.71	-1
44	6126	3.81	-1
44	6276	3.91	-1
44	6430	4.01	-1
44	6580	4.11	-1
44	6730	4.21	-1
44	6880	4.31	-1
44	7030	4.41	-1
44	7393	4.51	-1
44	7544	4.61	-1
44	7694	4.71	-1
44	7844	4.81	-1
44	7994	4.91	-1
44	8148	5.01	-1
44	8298	5.11	-1
44	8448	5.21	-1
44	8598	5.31	-1
44	8748	5.41	-1
44	8899	5.51	-1
44	9262	5.61	-1
44	9412	5.71	-1
44	9562	5.81	-1
44	9712	5.91	-1
44	9866	6.01	-1
44	10016	6.11	-1
44	10166	6.21	-1
44	10316	6.31	-1
44	10466	6.41	-1
44	10616	6.51	-1
44	11023	6.61	-1
44	11174	6.71	-1
44	11324	6.81	-1
44	11474	6.91	-1
44	11628	7.01	-1
44	11778	7.11	-1
44	11928	7.21	-1
44	12078	7.31	-1
44	12228	7.41	-1
44	12378	7.51	-1
44	12529	7.61	-1
44	12892	7.71	-1
44	13042	7.81	-1
44	13192	7.91	-1
44	13346	8.01	-1
44	13496	8.11	-1
44	13646	8.21	-1
44	13796	8.31	-1
44	13946	8.41	-1
44	14096	8.51	-1
44	14246	8.61	-1
44	14609	8.71	-1
44	14760	8.81	-1
44	14910	8.91	-1
44	15064	9.01	-1
44	15214	9.11	-1
44	15364	9.21	-1
44	15514	9.31	-1
44	15664	9.41	-1
44	15814	9.51	-1
44	15964	9.61	-1
44	16115	9.71	-1
44	16522	9.81	-1
44	16672	9.91	-1
44	16826	10.01	-1
44	16976	10.11	-1
44	17126	10.21	-1
44	17276	10.31	-1
44	17426	10.41	-1
44	17576	10.51	-1
44	17726	10.61	-1
44	17876	10.71	-1
44	18239	10.81	-1
44	18390	10.91	-1
44	18544	11.01	-1
44	18694	11.11	-1
44	18844	11.21	-1
44	18994	11.31	-1
44	19144	11.41	-1
44	19294	11.51	-1
44	19444	11.61	-1
44	19594	11.71	-1
44	19745	11.81	-1
44	20108	11.91	-1
44	20262	12.01	-1
44	20412	12.11	-1
44	20562	12.21	-1
44	20712	12.31	-1
44	20862	12.41	-1
44	21012	12.51	-1
44	21162	12.61	-1
44	21312	12.71	-1
44	21462	12.81	-1
44	21845	12.91	-1
44	22000	13.01	-1
44	22150	13.11	-1
44	22300	13.21	-1
44	22450	13.31	-1
44	22600	13.41	-1
44	22750	13.51	-1
44	22900	13.61	-1
44	23050	13.71	-1
44	23200	13.81	-1
44	23351	13.91	-1
44	23738	14.01	-1
44	23888	14.11	-1
44	24038	14.21	-1
44	24188	14.31	-1
44	24338	14.41	-1
44	24488	14.51	-1
44	24638	14.61	-1
44	24788	14.71	-1
44	24938	14.81	-1
44	25088	14.91	-1
44	25499	15.01	-1
44	25650	15.11	-1
44	25800	15.21	-1
44	25950	15.31	-1
44	26100	15.41	-1
44	26250	15.51	-1
44	26400	15.61	-1
44	26550	15.71	-1
44	26700	15.81	-1
44	26850	15.91	-1
44	27004	16.01	-1
44	27154	16.11	-1
44	27304	16.21	-1
44	27454	16.31	-1
44	27604	16.41	-1
44	27754	16.51	-1
44	27904	16.61	-1
44	28054	16.71	-1
44	28204	16.81	-1
44	28354	16.91	-1
44	28508	17.01	-1
44	28658	17.11	-1
44	28808	17.21	-1
44	28958	17.31	-1
44	29108	17.41	-1
44	29258	17.51	-1
44	29408	17.61	-1
44	29558	17.71	-1
44	29708	17.81	-1
44	29858	17.91	-1
44	30012	18.01	-1
44	30162	18.11	-1
44	30312	18.21	-1
44	30462	18.31	-1
44	30612	18.41	-1
44	30762	18.51	-1
44	30912	18.61	-1
44	31062	18.71	-1
44	31212	18.81	-1
44	31362	18.91	-1
44	31516	19.01	-1
44	31666	19.11	-1
44	31816	19.21	-1
44	31966	19.31	-1
44	32116	19.41	-1
44	32266	19.51	-1
44	32416	19.61	-1
44	32566	19.71	-1
44	32716	19.81	-1
44	32866	19.91	-1
44	33020	20.01	-1
44	33170	20.11	-1
44	33320	20.21	-1
44	33470	20.31	-1
44	33620	20.41	-1
44	33770	20.51	-1
44	33920	20.61	-1
44	34070	20.71	-1
44	34220	20.81	-1
44	34370	20.91	-1
44	34524	21.01	-1
44	34674	21.11	-1
44	34824	21.21	-1
44	34974	21.31	-1
44	35124	21.41	-1
44	35274	21.51	-1
44	35424	21.61	-1
44	35574	21.71	-1
44	35724	21.81	-1
44	35874	21.91	-1
44	36028	22.01	-1
44	36178	22.11	-1
44	36328	22.21	-1
44	36478	22.31	-1
44	36628	22.41	-1
44	36778	22.51	-1
44	36928	22.61	-1
44	37078	22.71	-1
44	37228	22.81	-1
44	37378	22.91	-1
44	37532	23.01	-1
44	37682	23.11	-1
44	37832	23.21	-1
44	37982	23.31	-1
44	38132	23.41	-1
44	38282	23.51	-1
44	38432	23.61	-1
44	38582	23.71	-1
44	38732	23.81	-1
44	38882	23.91	-1
44	39036	24.01	-1
44	39186	24.11	-1
44	39336	24.21	-1
44	39486	24.31	-1
44	39636	24.41	-1
44	39786	24.51	-1
44	39936	24.61	-1
44	40086	24.71	-1
44	40236	24.81	-1
44	40386	24.91	-1
44	40540	25.01	-1
44	40690	25.11	-1
44	40840	25.21	-1
44	40990	25.31	-1
44	41140	25.41	-1
44	41290	25.51	-1
44	41440	25.61	-1
44	41590	25.71	-1
44	41740	25.81	-1
44	41890	25.91	-1
44	42044	26.01	-1
44	42194	26.11	-1
44	42344	26.21	-1
44	42494	26.31	-1
44	42644	26.41	-1
44	42794	26.51	-1
44	42944	26.61	-1
44	43095	26.71	-1
44	43245	26.81	-1
44	43395	26.91	-1
44	43549	27.01	-1
44	43699	27.11	-1
44	43849	27.21	-1
44	43999	27.31	-1
44	44149	27.41	-1
44	44299	27.51	-1
44	44449	27.61	-1
44	44599	27.71	-1
44	44749	27.81	-1
44	44899	27.91	-1
44	45053	28.01	-1
44	45203	28.11	-1
44	45353	28.21	-1
44	45503	28.31	-1
44	45653	28.41	-1
44	45803	28.51	-1
44	45953	28.61	-1
44	46103	28.71	-1
44	46253	28.81	-1
44	46403	28.91	-1
44	46557	29.01	-1
44	46707	29.11	-1
44	46857	29.21	-1
44	47007	29.31	-1
44	47157	29.41	-1
44	47307	29.51	-1
44	47457	29.61	-1
44	47607	29.71	-1
44	47757	29.81	-1
44	47907	29.91	-1
44	48061	30.01	-1
44	48211	30.11	-1
44	48361	30.21	-1
44	48511	30.31	-1
44	48661	30.41	-1
44	48811	30.51	-1
44	48961	30.61	-1
44	49111	30.71	-1
44	49261	30.81	-1
44	49411	30.91	-1
44	49565	31.01	-1
44	49715	31.11	-1
44	49865	31.21	-1
44	50015	31.31	-1
44	50165	31.41	-1
44	50315	31.51	-1
44	50465	31.61	-1
44	50615	31.71	-1
44	50765	31.81	-1
44	50915	31.91	-1
44	51069	32.01	-1
44	51219	32.11	-1
44	51369	32.21	-1
44	51519	32.31	-1
44	51669	32.41	-1
44	51819	32.51	-1
44	51969	32.61	-1
44	52119	32.71	-1
44	52269	32.81	-1
44	52419	32.91	-1
44	52573	33.01	-1
44	52723	33.11	-1
44	52873	33.21	-1
44	53023	33.31	-1
46	26	0.21	3
46	176	0.31	3
46	326	0.41	3
46	476	0.51	3
46	626	0.61	3
46	776	0.71	3
46	926	0.81	3
46	1076	0.91	3
46	1230	1.01	3
46	1381	1.11	3
46	1532	1.21	3
46	1683	1.31	3
46	2046	1.41	3
46	2196	1.51	3
46	2346	1.61	3
46	2496	1.71	3
46	2646	1.81	3
46	2796	1.91	3
46	2950	2.01	3
46	3100	2.11	3
46	3250	2.21	3
46	3400	2.31	3
46	3763	2.41	3
46	3914	2.51	3
46	4064	2.61	3
46	4214	2.71	3
46	4364	2.81	3
46	4514	2.91	3
46	4668	3.01	3
46	4818	3.11	3
46	4968	3.21	3
46	5118	3.31	3
46	5269	3.41	3
46	5676	3.51	3
46	5826	3.61	3
46	5976	3.71	3
46	6126	3.81	3
46	6276	3.91	3
46	6430	4.01	3
46	6580	4.11	3
46	6730	4.21	3
46	6880	4.31	3
46	7030	4.41	3
46	7393	4.51	3
46	7544	4.61	3
46	7694	4.71	3
46	7844	4.81	3
46	7994	4.91	3
46	8148	5.01	3
46	8298	5.11	3
46	8448	5.21	3
46	8598	5.31	3
46	8748	5.41	3
46	8899	5.51	3
46	9262	5.61	3
46	9412	5.71	3
46	9562	5.81	3
46	9712	5.91	3
46	9866	6.01	3
46	10016	6.11	3
46	10166	6.21	3
46	10316	6.31	3
46	10466	6.41	3
46	10616	6.51	3
46	11023	6.61	3
46	11174	6.71	3
46	11324	6.81	3
46	11474	6.91	3
46	11628	7.01	3
46	11778	7.11	3
46	11928	7.21	3
46	12078	7.31	3
46	12228	7.41	3
46	12378	7.51	3
46	12529	7.61	3
46	12892	7.71	3
46	13042	7.81	3
46	13192	7.91	3
46	13346	8.01	3
46	13496	8.11	3
46	13646	8.21	3
46	13796	8.31	3
46	13946	8.41	3
46	14096	8.51	3
46	14246	8.61	3
46	14609	8.71	3
46	14760	8.81	3
46	14910	8.91	3
46	15064	9.01	3
46	15214	9.11	3
46	15364	9.21	3
46	15514	9.31	3
46	15664	9.41	3
46	15814	9.51	3
46	15964	9.61	3
46	16115	9.71	3
46	16522	9.81	3
46	16672	9.91	3
46	16826	10.01	3
46	16976	10.11	3
46	17126	10.21	3
46	17276	10.31	3
46	17426	10.41	3
46	17576	10.51	3
46	17726	10.61	3
46	17876	10.71	3
46	18239	10.81	3
46	18390	10.91	3
46	18544	11.01	3
46	18694	11.11	3
46	18844	11.21	3
46	18994	11.31	3
46	19144	11.41	3
46	19294	11.51	3
46	19444	11.61	3
46	19594	11.71	3
46	19745	11.81	3
46	20108	11.91	3
46	20262	12.01	3
46	20412	12.11	3
46	20562	12.21	3
46	20712	12.31	3
46	20862	12.41	3
46	21012	12.51	3
46	21162	12.61	3
46	21312	12.71	3
46	21462	12.81	3
46	21845	12.91	3
46	22000	13.01	3
46	22150	13.11	3
46	22300	13.21	3
46	22450	13.31	3
46	22600	13.41	3
46	22750	13.51	3
46	22900	13.61	3
46	23050	13.71	3
46	23200	13.81	3
46	23351	13.91	3
46	23738	14.01	3
46	23888	14.11	3
46	24038	14.21	3
46	24188	14.31	3
46	24338	14.41	3
46	24488	14.51	3
46	24638	14.61	3
46	24788	14.71	3
46	24938	14.81	3
46	25088	14.91	3
46	25499	15.01	3
46	25650	15.11	3
46	25800	15.21	3
46	25950	15.31	3
46	26100	15.41	3
46	26250	15.51	3
46	26400	15.61	3
46	26550	15.71	3
46	26700	15.81	3
46	26850	15.91	3
46	27004	16.01	3
46	27154	16.11	3
46	27304	16.21	3
46	27454	16.31	3
46	27604	16.41	3
46	27754	16.51	3
46	27904	16.61	3
46	28054	16.71	3
46	28204	16.81	3
46	28354	16.91	3
46	28508	17.01	3
46	28658	17.11	3
46	28808	17.21	3
46	28958	17.31	3
46	29108	17.41	3
46	29258	17.51	3
46	29408	17.61	3
46	29558	17.71	3
46	29708	17.81	3
46	29858	17.91	3
46	30012	18.01	3
46	30162	18.11	3
46	30312	18.21	3
46	30462	18.31	3
46	30612	18.41	3
46	30762	18.51	3
46	30912	18.61	3
46	31062	18.71	3
46	31212	18.81	3
46	31362	18.91	3
46	31516	19.01	3
46	31666	19.11	3
46	31816	19.21	3
46	31966	19.31	3
46	32116	19.41	3
46	32266	19.51	3
46	32416	19.61	3
46	32566	19.71	3
46	32716	19.81	3
46	32866	19.91	3
46	33020	20.01	3
46	33170	20.11	3
46	33320	20.21	3
46	33470	20.31	3
46	33620	20.41	3
46	33770	20.51	3
46	33920	20.61	3
46	34070	20.71	3
46	34220	20.81	3
46	34370	20.91	3
46	34524	21.01	3
46	34674	21.11	3
46	34824	21.21	3
46	34974	21.31	3
46	35124	21.41	3
46	35274	21.51	3
46	35424	21.61	3
46	35574	21.71	3
46	35724	21.81	3
46	35874	21.91	3
46	36028	22.01	3
46	36178	22.11	3
46	36328	22.21	3
46	36478	22.31	3
46	36628	22.41	3
46	36778	22.51	3
46	36928	22.61	3
46	37078	22.71	3
46	37228	22.81	3
46	37378	22.91	3
46	37532	23.01	3
46	37682	23.11	3
46	37832	23.21	3
46	37982	23.31	3
46	38132	23.41	3
46	38282	23.51	3
46	38432	23.61	3
46	38582	23.71	3
46	38732	23.81	3
46	38882	23.91	3
46	39036	24.01	3
46	39186	24.11	3
46	39336	24.21	3
46	39486	24.31	3
46	39636	24.41	3
46	39786	24.51	3
46	39936	24.61	3
46	40086	24.71	3
46	40236	24.81	3
46	40386	24.91	3
46	40540	25.01	3
46	40690	25.11	3
46	40840	25.21	3
46	40990	25.31	3
46	41140	25.41	3
46	41290	25.51	3
46	41440	25.61	3
46	41590	25.71	3
46	41740	25.81	3
46	41890	25.91	3
46	42044	26.01	3
46	42194	26.11	3
46	42344	26.21	3
46	42494	26.31	3
46	42644	26.41	3
46	42794	26.51	3
46	42944	26.61	3
46	43095	26.71	3
46	43245	26.81	3
46	43395	26.91	3
46	43549	27.01	3
46	43699	27.11	3
46	43849	27.21	3
46	43999	27.31	3
46	44149	27.41	3
46	44299	27.51	3
46	44449	27.61	3
46	44599	27.71	3
46	44749	27.81	3
46	44899	27.91	3
46	45053	28.01	3
46	45203	28.11	3
46	45353	28.21	3
46	45503	28.31	3
46	45653	28.41	3
46	45803	28.51	3
46	45953	28.61	3
46	46103	28.71	3
46	46253	28.81	3
46	46403	28.91	3
46	46557	29.01	3
46	46707	29.11	3
46	46857	29.21	3
46	47007	29.31	3
46	47157	29.41	3
46	47307	29.51	3
46	47457	29.61	3
46	47607	29.71	3
46	47757	29.81	3
46	47907	29.91	3
46	48061	30.01	3
46	48211	30.11	3
46	48361	30.21	3
46	48511	30.31	3
46	48661	30.41	3
46	48811	30.51	3
46	48961	30.61	3
46	49111	30.71	3
46	49261	30.81	3
46	49411	30.91	3
46	49565	31.01	3
46	49715	31.11	3
46	49865	31.21	3
46	50015	31.31	3
46	50165	31.41	3
46	50315	31.51	3
46	50465	31.61	3
46	50615	31.71	3
46	50765	31.81	3
46	50915	31.91	3
46	51069	32.01	3
46	51219	32.11	3
46	51369	32.21	3
46	51519	32.31	3
46	51669	32.41	3
46	51819	32.51	3
46	51969	32.61	3
46	52119	32.71	3
46	52269	32.81	3
46	52419	32.91	3
46	52573	33.01	3
46	52723	33.11	3
46	52873	33.21	3
46	53023	33.31	3
67	1191	1	0
67	2911	2	0
67	4629	3	0
67	6391	4	0
67	8109	5	0
67	9827	6	0
67	11589	7	0
67	13307	8	0
67	15025	9	0
67	16787	10	0
67	18505	11	0
67	20223	12	0
67	21961	13	0
67	23699	14	0
67	25460	15	0
67	26965	16	0
67	28469	17	0
67	29973	18	0
67	31477	19	0
67	32981	20	0
67	34485	21	0
67	35989	22	0
67	37493	23	0
67	38997	24	0
67	40501	25	0
67	42005	26	0
67	43510	27	0
67	45014	28	0
67	46518	29	0
67	48022	30	0
67	49526	31	0
67	51030	32	0
67	52534	33	0
66	1191	1	0.009679
66	2911	2	0.013005611178
66	4629	3	0.013005362166
66	6391	4	0.013053130298
66	8109	5	0.013004903646
66	9827	6	0.013004678826
66	11589	7	0.01314745579
66	13307	8	0.013004234828
66	15025	9	0.013004015922
66	16787	10	0.013146798902
66	18505	11	0.013003583588
66	20223	12	0.01300336988
66	21961	13	0.013003158118
66	23699	14	0.013003058736
66	25460	15	0.013051266108
66	26965	16	0.01249
66	28469	17	0.01249
66	29973	18	0.01249
66	31477	19	0.01249
66	32981	20	0.01249
66	34485	21	0.01249
66	35989	22	0.01249
66	37493	23	0.01249
66	38997	24	0.01249
66	40501	25	0.01249
66	42005	26	0.01249
66	43510	27	0.01249
66	45014	28	0.01249
66	46518	29	0.01249
66	48022	30	0.01249
66	49526	31	0.01249
66	51030	32	0.01249
66	52534	33	0.01249
65	1191	1	3
65	2911	2	3
65	4629	3	3
65	6391	4	3
65	8109	5	3
65	9827	6	3
65	11589	7	3
65	13307	8	3
65	15025	9	3
65	16787	10	3
65	18505	11	3
65	20223	12	3
65	21961	13	3
65	23699	14	3
65	25460	15	3
65	26965	16	3
65	28469	17	3
65	29973	18	3
65	31477	19	3
65	32981	20	3
65	34485	21	3
65	35989	22	3
65	37493	23	3
65	38997	24	3
65	40501	25	3
65	42005	26	3
65	43510	27	3
65	45014	28	3
65	46518	29	3
65	48022	30	3
65	49526	31	3
65	51030	32	3
65	52534	33	3
19	15	0.13	2.1150389656573
19	16	0.14	2.1151861021693
19	17	0.15	2.1153303121115
19	18	0.16	2.1154716246027
19	19	0.17	2.1156100687577
19	20	0.18	2.1157456736831
19	21	0.19	2.1158784684707
19	22	0.2	2.1160084821918
19	27	0.21	2.1161357438933
19	62	0.22	2.116260282591
19	97	0.23	2.1163821272654
19	98	0.24	2.1165013068575
19	99	0.25	2.1166178502614
19	134	0.26	2.1167317863221
19	135	0.27	2.1168431438294
19	136	0.28	2.1169519515135
19	137	0.29	2.1170582380419
19	138	0.3	2.1171620320132
19	177	0.31	2.1172633619536
19	212	0.32	2.117362256313
19	247	0.33	2.1174587434609
19	248	0.34	2.1175528516813
19	249	0.35	2.1176446091708
19	284	0.36	2.1177340440332
19	285	0.37	2.1178211842761
19	286	0.38	2.1179060578083
19	287	0.39	2.1179886924349
19	288	0.4	2.1180691158553
19	327	0.41	2.1181473556577
19	362	0.42	2.1182234393187
19	397	0.43	2.118297394198
19	398	0.44	2.1183692475362
19	399	0.45	2.1184390264517
19	434	0.46	2.1185067579371
19	435	0.47	2.1185724688582
19	436	0.48	2.1186361859485
19	437	0.49	2.1186979358092
19	438	0.5	2.1187577449053
19	477	0.51	2.1188156395624
19	512	0.52	2.1188716459661
19	547	0.53	2.1189257901587
19	548	0.54	2.1189780980363
19	549	0.55	2.1190285953471
19	584	0.56	2.1190773076896
19	585	0.57	2.1191242605105
19	586	0.58	2.119169479102
19	587	0.59	2.1192129886009
19	588	0.6	2.1192548139851
19	627	0.61	2.1192949800734
19	662	0.62	2.1193335115237
19	697	0.63	2.1193704328299
19	698	0.64	2.1194057683221
19	699	0.65	2.1194395421642
19	734	0.66	2.1194717783515
19	735	0.67	2.1195025007109
19	736	0.68	2.1195317328993
19	737	0.69	2.119559498401
19	738	0.7	2.1195858205274
19	777	0.71	2.1196107224171
19	812	0.72	2.1196342270316
19	847	0.73	2.1196563571577
19	848	0.74	2.1196771354037
19	849	0.75	2.1196965841998
19	884	0.76	2.119714725798
19	885	0.77	2.1197315822692
19	886	0.78	2.1197471755042
19	887	0.79	2.1197615272121
19	888	0.8	2.1197746589196
19	927	0.81	2.11978659197
19	962	0.82	2.119797347524
19	997	0.83	2.1198069465581
19	998	0.84	2.1198154098643
19	999	0.85	2.1198227580488
19	1034	0.86	2.1198290115334
19	1035	0.87	2.119834190554
19	1036	0.88	2.11983831516
19	1037	0.89	2.1198414052142
19	1038	0.9	2.1198434803939
19	1077	0.91	2.1198445601885
19	1112	0.92	2.1198446639009
19	1147	0.93	2.1198438106467
19	1148	0.94	2.1198420193544
19	1149	0.95	2.1198393087653
19	1184	0.96	2.1198356974339
19	1185	0.97	2.1198312037274
19	1186	0.98	2.1198258458256
19	1187	0.99	2.1198196417214
19	1192	1	2.1198126092207
19	1231	1.01	2.1198047659433
19	1266	1.02	2.1197961293222
19	1301	1.03	2.1197867166039
19	1302	1.04	2.1197765448489
19	1303	1.05	2.1197656309324
19	1338	1.06	2.1197539915444
19	1339	1.07	2.1197416431899
19	1340	1.08	2.1197286021885
19	1341	1.09	2.1197148846772
19	1342	1.1	2.1197005066078
19	1382	1.11	2.1196854837491
19	1417	1.12	2.1196698316878
19	1452	1.13	2.1196535658287
19	1453	1.14	2.1196367013938
19	1454	1.15	2.1196192534244
19	1489	1.16	2.1196012367818
19	1490	1.17	2.119582666147
19	1491	1.18	2.1195635560222
19	1492	1.19	2.1195439207306
19	1493	1.2	2.1195237744182
19	1533	1.21	2.119503131053
19	1568	1.22	2.1194820044276
19	1603	1.23	2.1194604081581
19	1604	1.24	2.1194383556862
19	1605	1.25	2.1194158602793
19	1640	1.26	2.1193929350318
19	1641	1.27	2.1193695928659
19	1642	1.28	2.1193458465316
19	1643	1.29	2.1193217086079
19	1644	1.3	2.119297191505
19	1684	1.31	2.1192723074636
19	1931	1.32	2.1192470685567
19	1966	1.33	2.1192214866898
19	1967	1.34	2.1191955736023
19	1968	1.35	2.1191693408685
19	2004	1.36	2.1191427998986
19	2005	1.37	2.1191159619393
19	2006	1.38	2.119088838075
19	2007	1.39	2.1190614392291
19	2008	1.4	2.1190337761644
19	2047	1.41	2.119005859485
19	2082	1.42	2.1189776996367
19	2117	1.43	2.1189493069079
19	2118	1.44	2.1189206914316
19	2119	1.45	2.1188918631852
19	2154	1.46	2.118862831992
19	2155	1.47	2.1188336075236
19	2156	1.48	2.1188041992991
19	2157	1.49	2.1187746166871
19	2158	1.5	2.1187448689065
19	2197	1.51	2.1187149650282
19	2232	1.52	2.1186849139762
19	2267	1.53	2.1186547245275
19	2268	1.54	2.1186244053146
19	2269	1.55	2.1185939648264
19	2304	1.56	2.1185634114092
19	2305	1.57	2.1185327532677
19	2306	1.58	2.1185019984662
19	2307	1.59	2.11847115493
19	2308	1.6	2.1184402304458
19	2347	1.61	2.1184092326645
19	2382	1.62	2.1183781691009
19	2417	1.63	2.1183470471352
19	2418	1.64	2.1183158740143
19	2419	1.65	2.1182846568538
19	2454	1.66	2.1182534026378
19	2455	1.67	2.1182221182207
19	2456	1.68	2.1181908103292
19	2457	1.69	2.1181594855618
19	2458	1.7	2.1181281503907
19	2497	1.71	2.1180968111649
19	2532	1.72	2.1180654741079
19	2567	1.73	2.1180341453222
19	2568	1.74	2.118002830788
19	2569	1.75	2.1179715363656
19	2604	1.76	2.1179402677974
19	2605	1.77	2.1179090307071
19	2606	1.78	2.1178778306022
19	2607	1.79	2.1178466728754
19	2608	1.8	2.117815562805
19	2647	1.81	2.117784505556
19	2682	1.82	2.117753506183
19	2717	1.83	2.1177225696291
19	2718	1.84	2.1176917007288
19	2719	1.85	2.1176609042082
19	2754	1.86	2.1176301846872
19	2755	1.87	2.117599546679
19	2756	1.88	2.1175689945927
19	2757	1.89	2.1175385327343
19	2758	1.9	2.117508165308
19	2797	1.91	2.1174778964164
19	2832	1.92	2.1174477300624
19	2867	1.93	2.1174176701514
19	2868	1.94	2.1173877204895
19	2869	1.95	2.1173578847882
19	2904	1.96	2.117328166663
19	2905	1.97	2.1172985696359
19	2906	1.98	2.1172690971356
19	2907	1.99	2.1172397524996
19	2912	2	2.117210538975
19	2951	2.01	2.1171814597191
19	2986	2.02	2.1171525178014
19	3021	2.03	2.1171237162038
19	3022	2.04	2.1170950578229
19	3023	2.05	2.1170665454699
19	3058	2.06	2.117038181872
19	3059	2.07	2.1170099696744
19	3060	2.08	2.1169819114403
19	3061	2.09	2.1169540096529
19	3062	2.1	2.1169262667156
19	3101	2.11	2.1168986849536
19	3136	2.12	2.1168712666146
19	3171	2.13	2.1168440138715
19	3172	2.14	2.1168169288206
19	3173	2.15	2.1167900134855
19	3208	2.16	2.1167632698155
19	3209	2.17	2.1167366996889
19	3210	2.18	2.1167103049133
19	3211	2.19	2.1166840872256
19	3212	2.2	2.1166580482949
19	3251	2.21	2.1166321897217
19	3286	2.22	2.1166065130407
19	3321	2.23	2.1165810197195
19	3322	2.24	2.1165557111625
19	3323	2.25	2.1165305887089
19	3358	2.26	2.116505653636
19	3359	2.27	2.1164809071594
19	3360	2.28	2.1164563504336
19	3361	2.29	2.1164319845527
19	3362	2.3	2.1164078105532
19	3401	2.31	2.1163838294125
19	3436	2.32	2.1163600420516
19	3471	2.33	2.1163364493357
19	3472	2.34	2.1163130520741
19	3473	2.35	2.1162898510226
19	3509	2.36	2.1162668468832
19	3722	2.37	2.1162440403057
19	3723	2.38	2.1162214318882
19	3724	2.39	2.1161990221788
19	3725	2.4	2.1161768116756
19	3765	2.41	2.1161548008273
19	3800	2.42	2.116132990036
19	3835	2.43	2.1161113796553
19	3836	2.44	2.1160899699927
19	3837	2.45	2.1160687613114
19	3872	2.46	2.1160477538295
19	3873	2.47	2.1160269477213
19	3874	2.48	2.1160063431173
19	3875	2.49	2.1159859401074
19	3876	2.5	2.1159657387396
19	3915	2.51	2.1159457390211
19	3950	2.52	2.1159259409199
19	3985	2.53	2.1159063443648
19	3986	2.54	2.1158869492462
19	3987	2.55	2.115867755418
19	4022	2.56	2.1158487626971
19	4023	2.57	2.1158299708641
19	4024	2.58	2.1158113796652
19	4025	2.59	2.1157929888115
19	4026	2.6	2.1157747979814
19	4065	2.61	2.1157568068196
19	4100	2.62	2.1157390149388
19	4135	2.63	2.1157214219208
19	4136	2.64	2.1157040273157
19	4137	2.65	2.1156868306438
19	4172	2.66	2.1156698313963
19	4173	2.67	2.115653029035
19	4174	2.68	2.1156364229947
19	4175	2.69	2.1156200126821
19	4176	2.7	2.1156037974772
19	4215	2.71	2.1155877767339
19	4250	2.72	2.1155719497809
19	4285	2.73	2.1155563159217
19	4286	2.74	2.1155408744359
19	4287	2.75	2.1155256245789
19	4322	2.76	2.1155105655842
19	4323	2.77	2.1154956966618
19	4324	2.78	2.1154810170002
19	4325	2.79	2.1154665257672
19	4326	2.8	2.1154522221102
19	4365	2.81	2.115438105155
19	4400	2.82	2.11542417401
19	4435	2.83	2.1154104277625
19	4436	2.84	2.115396865483
19	4437	2.85	2.1153834862237
19	4472	2.86	2.1153702890198
19	4473	2.87	2.1153572728886
19	4474	2.88	2.1153444368322
19	4475	2.89	2.1153317798369
19	4476	2.9	2.1153193008736
19	4515	2.91	2.115306998898
19	4550	2.92	2.1152948728525
19	4585	2.93	2.1152829216649
19	4586	2.94	2.1152711442505
19	4587	2.95	2.1152595395106
19	4622	2.96	2.1152481063359
19	4623	2.97	2.1152368436034
19	4624	2.98	2.1152257501799
19	4625	2.99	2.1152148249209
19	4630	3	2.1152040666716
19	4669	3.01	2.1151934742666
19	4704	3.02	2.1151830465308
19	4739	3.03	2.1151727822805
19	4740	3.04	2.115162680322
19	4741	3.05	2.1151527394546
19	4776	3.06	2.1151429584693
19	4777	3.07	2.1151333361482
19	4778	3.08	2.1151238712676
19	4779	3.09	2.1151145625963
19	4780	3.1	2.115105408896
19	4819	3.11	2.1150964089237
19	4854	3.12	2.1150875614293
19	4889	3.13	2.1150788651582
19	4890	3.14	2.1150703188506
19	4891	3.15	2.1150619212417
19	4926	3.16	2.1150536710626
19	4927	3.17	2.1150455670402
19	4928	3.18	2.1150376078972
19	4929	3.19	2.1150297923541
19	4930	3.2	2.1150221191277
19	4969	3.21	2.1150145869313
19	5004	3.22	2.1150071944772
19	5039	3.23	2.1149999404747
19	5040	3.24	2.1149928236315
19	5041	3.25	2.1149858426542
19	5076	3.26	2.1149789962472
19	5077	3.27	2.1149722831143
19	5078	3.28	2.1149657019584
19	5079	3.29	2.1149592514819
19	5080	3.3	2.1149529303883
19	5119	3.31	2.1149467373791
19	5154	3.32	2.1149406711581
19	5189	3.33	2.114934730428
19	5190	3.34	2.1149289138936
19	5191	3.35	2.1149232202594
19	5226	3.36	2.1149176482325
19	5227	3.37	2.1149121965216
19	5228	3.38	2.1149068638355
19	5229	3.39	2.1149016488864
19	5230	3.4	2.1148965503888
19	5270	3.41	2.1148915670586
19	5561	3.42	2.1148866976148
19	5596	3.43	2.1148819407789
19	5597	3.44	2.1148772952763
19	5598	3.45	2.1148727598343
19	5634	3.46	2.1148683331839
19	5635	3.47	2.1148640140607
19	5636	3.48	2.1148598012028
19	5637	3.49	2.1148556933525
19	5638	3.5	2.1148516892561
19	5677	3.51	2.1148477876653
19	5712	3.52	2.1148439873343
19	5747	3.53	2.1148402870229
19	5748	3.54	2.1148366854958
19	5749	3.55	2.1148331815221
19	5784	3.56	2.1148297738759
19	5785	3.57	2.1148264613368
19	5786	3.58	2.1148232426896
19	5787	3.59	2.1148201167238
19	5788	3.6	2.114817082236
19	5827	3.61	2.114814138027
19	5862	3.62	2.1148112829033
19	5897	3.63	2.1148085156787
19	5898	3.64	2.1148058351725
19	5899	3.65	2.114803240209
19	5934	3.66	2.1148007296204
19	5935	3.67	2.1147983022444
19	5936	3.68	2.1147959569257
19	5937	3.69	2.1147936925145
19	5938	3.7	2.1147915078685
19	5977	3.71	2.1147894018523
19	6012	3.72	2.1147873733371
19	6047	3.73	2.114785421201
19	6048	3.74	2.114783544329
19	6049	3.75	2.1147817416138
19	6084	3.76	2.114780011954
19	6085	3.77	2.1147783542569
19	6086	3.78	2.1147767674363
19	6087	3.79	2.1147752504136
19	6088	3.8	2.1147738021179
19	6127	3.81	2.1147724214851
19	6162	3.82	2.1147711074599
19	6197	3.83	2.1147698589934
19	6198	3.84	2.1147686750447
19	6199	3.85	2.1147675545813
19	6234	3.86	2.1147664965781
19	6235	3.87	2.1147655000177
19	6236	3.88	2.1147645638907
19	6237	3.89	2.1147636871962
19	6238	3.9	2.1147628689398
19	6277	3.91	2.1147621081365
19	6312	3.92	2.1147614038095
19	6347	3.93	2.1147607549888
19	6348	3.94	2.1147601607137
19	6349	3.95	2.1147596200306
19	6384	3.96	2.1147591319955
19	6385	3.97	2.1147586956709
19	6386	3.98	2.1147583101292
19	6387	3.99	2.1147579744499
19	6392	4	2.1147576877213
19	6431	4.01	2.1147574490393
19	6466	4.02	2.1147572575088
19	6501	4.03	2.1147571122431
19	6502	4.04	2.1147570123632
19	6503	4.05	2.114756956999
19	6538	4.06	2.1147569452888
19	6539	4.07	2.1147569763787
19	6540	4.08	2.1147570494229
19	6541	4.09	2.114757163585
19	6542	4.1	2.1147573180359
19	6581	4.11	2.1147575119556
19	6616	4.12	2.1147577445322
19	6651	4.13	2.1147580149622
19	6652	4.14	2.1147583224501
19	6653	4.15	2.1147586662092
19	6688	4.16	2.1147590454604
19	6689	4.17	2.1147594594341
19	6690	4.18	2.1147599073678
19	6691	4.19	2.1147603885084
19	6692	4.2	2.11476090211
19	6731	4.21	2.1147614474355
19	6766	4.22	2.1147620237555
19	6801	4.23	2.1147626303494
19	6802	4.24	2.114763266505
19	6803	4.25	2.1147639315178
19	6838	4.26	2.1147646246915
19	6839	4.27	2.114765345338
19	6840	4.28	2.1147660927772
19	6841	4.29	2.1147668663376
19	6842	4.3	2.114767665355
19	6881	4.31	2.1147684891738
19	6916	4.32	2.1147693371459
19	6951	4.33	2.1147702086316
19	6952	4.34	2.1147711029989
19	6953	4.35	2.114772019624
19	6988	4.36	2.1147729578903
19	6989	4.37	2.1147739171895
19	6990	4.38	2.1147748969214
19	6991	4.39	2.1147758964933
19	6992	4.4	2.1147769153198
19	7031	4.41	2.114777952824
19	7066	4.42	2.114779008436
19	7101	4.43	2.1147800815938
19	7102	4.44	2.1147811717434
19	7103	4.45	2.114782278337
19	7139	4.46	2.1147834008354
19	7352	4.47	2.1147845387069
19	7353	4.48	2.114785691427
19	7354	4.49	2.1147868584788
19	7355	4.5	2.1147880393522
19	7395	4.51	2.1147892335443
19	7430	4.52	2.1147904405597
19	7465	4.53	2.1147916599106
19	7466	4.54	2.1147928911163
19	7467	4.55	2.1147941337025
19	7502	4.56	2.1147953872028
19	7503	4.57	2.1147966511571
19	7504	4.58	2.1147979251126
19	7505	4.59	2.1147992086233
19	7506	4.6	2.1148005012508
19	7545	4.61	2.1148018025621
19	7580	4.62	2.1148031121321
19	7615	4.63	2.1148044295422
19	7616	4.64	2.1148057543805
19	7617	4.65	2.1148070862411
19	7652	4.66	2.1148084247252
19	7653	4.67	2.1148097694405
19	7654	4.68	2.1148111200017
19	7655	4.69	2.1148124760292
19	7656	4.7	2.1148138371492
19	7695	4.71	2.1148152029957
19	7730	4.72	2.1148165732081
19	7765	4.73	2.114817947432
19	7766	4.74	2.1148193253192
19	7767	4.75	2.1148207065278
19	7802	4.76	2.1148220907213
19	7803	4.77	2.1148234775709
19	7804	4.78	2.1148248667518
19	7805	4.79	2.1148262579457
19	7806	4.8	2.1148276508408
19	7845	4.81	2.1148290451307
19	7880	4.82	2.1148304405142
19	7915	4.83	2.1148318366965
19	7916	4.84	2.1148332333883
19	7917	4.85	2.114834630306
19	7952	4.86	2.1148360271707
19	7953	4.87	2.1148374237101
19	7954	4.88	2.1148388196558
19	7955	4.89	2.1148402147467
19	7956	4.9	2.1148416087257
19	7995	4.91	2.1148430013414
19	8030	4.92	2.1148443923475
19	8065	4.93	2.1148457815023
19	8066	4.94	2.1148471685702
19	8067	4.95	2.1148485533195
19	8102	4.96	2.114849935525
19	8103	4.97	2.1148513149652
19	8104	4.98	2.1148526914233
19	8105	4.99	2.1148540646886
19	8110	5	2.1148554345542
19	8149	5.01	2.1148568008187
19	8184	5.02	2.1148581632839
19	8219	5.03	2.1148595217577
19	8220	5.04	2.1148608760521
19	8221	5.05	2.1148622259828
19	8256	5.06	2.1148635713712
19	8257	5.07	2.1148649120424
19	8258	5.08	2.1148662478265
19	8259	5.09	2.1148675785568
19	8260	5.1	2.1148689040721
19	8299	5.11	2.1148702242142
19	8334	5.12	2.1148715388295
19	8369	5.13	2.1148728477687
19	8370	5.14	2.1148741508867
19	8371	5.15	2.1148754480424
19	8406	5.16	2.1148767390976
19	8407	5.17	2.1148780239192
19	8408	5.18	2.1148793023772
19	8409	5.19	2.114880574346
19	8410	5.2	2.1148818397037
19	8449	5.21	2.1148830983315
19	8484	5.22	2.1148843501144
19	8519	5.23	2.1148855949411
19	8520	5.24	2.1148868327047
19	8521	5.25	2.1148880633002
19	8556	5.26	2.1148892866269
19	8557	5.27	2.114890502588
19	8558	5.28	2.114891711089
19	8559	5.29	2.1148929120392
19	8560	5.3	2.1148941053518
19	8599	5.31	2.1148952909417
19	8634	5.32	2.1148964687284
19	8669	5.33	2.1148976386335
19	8670	5.34	2.1148988005828
19	8671	5.35	2.1148999545044
19	8706	5.36	2.1149011003289
19	8707	5.37	2.1149022379906
19	8708	5.38	2.114903367427
19	8709	5.39	2.1149044885777
19	8710	5.4	2.1149056013849
19	8749	5.41	2.1149067057939
19	8784	5.42	2.1149078017533
19	8819	5.43	2.1149088892139
19	8820	5.44	2.1149099681287
19	8821	5.45	2.1149110384542
19	8856	5.46	2.1149121001485
[...]
2	67364	55.23	931.55726268403
2	67365	55.24	931.69615168374
2	67366	55.25	931.83504068346
2	67385	55.26	931.97392968317
2	67386	55.27	932.11281868289
2	67387	55.28	932.2517076826
2	67388	55.29	932.39059668231
2	67389	55.3	932.52948568203
2	67392	55.31	932.66837468175
2	67393	55.32	932.80726368146
2	67412	55.33	932.94615268118
2	67413	55.34	933.0850416809
2	67414	55.35	933.22393068061
2	67433	55.36	933.36281968033
2	67434	55.37	933.50170868005
2	67435	55.38	933.64059767977
2	67436	55.39	933.77948667949
2	67437	55.4	933.91837567921
2	67440	55.41	934.05726467893
2	67441	55.42	934.19615367865
2	67460	55.43	934.33504267837
2	67461	55.44	934.47393167809
2	67462	55.45	934.61282067782
2	67481	55.46	934.75170967754
2	67482	55.47	934.89059867726
2	67483	55.48	935.02948767698
2	67484	55.49	935.16837667671
2	67485	55.5	935.30726567643
2	67488	55.51	935.44615467616
2	67489	55.52	935.58504367588
2	67508	55.53	935.72393267561
2	67509	55.54	935.86282167533
2	67510	55.55	936.00171067506
2	67529	55.56	936.14059967479
2	67530	55.57	936.27948867451
2	67531	55.58	936.41837767424
2	67532	55.59	936.55726667397
2	67533	55.6	936.6961556737
2	67536	55.61	936.83504467343
2	67537	55.62	936.97393367316
2	67556	55.63	937.11282267289
2	67557	55.64	937.25171167262
2	67558	55.65	937.39060067235
2	67577	55.66	937.52948967208
2	67578	55.67	937.66837867181
2	67579	55.68	937.80726767154
2	67580	55.69	937.94615667127
2	67581	55.7	938.08504567101
2	67584	55.71	938.22393467074
2	67585	55.72	938.36282367047
2	67604	55.73	938.50171267021
2	67605	55.74	938.64060166994
2	67606	55.75	938.77949066968
2	67625	55.76	938.91837966941
2	67626	55.77	939.05726866915
2	67627	55.78	939.19615766888
2	67628	55.79	939.33504666862
2	67629	55.8	939.47393566836
2	67632	55.81	939.61282466809
2	67633	55.82	939.75171366783
2	67652	55.83	939.89060266757
2	67653	55.84	940.02949166731
2	67654	55.85	940.16838066705
2	67673	55.86	940.30726966679
2	67674	55.87	940.44615866653
2	67675	55.88	940.58504766627
2	67676	55.89	940.72393666601
2	67677	55.9	940.86282566575
2	67680	55.91	941.00171466549
2	67681	55.92	941.14060366523
2	67700	55.93	941.27949266497
2	67701	55.94	941.41838166472
2	67702	55.95	941.55727066446
2	67721	55.96	941.6961596642
2	67722	55.97	941.83504866395
2	67723	55.98	941.97393766369
2	67724	55.99	942.11282666343
2	67727	56	942.25171566318
2	67730	56.01	942.39060466292
2	67731	56.02	942.52949366267
2	67750	56.03	942.66838266242
2	67751	56.04	942.80727166216
2	67752	56.05	942.94616066191
2	67771	56.06	943.08504966166
2	67772	56.07	943.2239386614
2	67773	56.08	943.36282766115
2	67774	56.09	943.5017166609
2	67775	56.1	943.64060566065
2	67778	56.11	943.7794946604
2	67779	56.12	943.91838366015
2	67798	56.13	944.0572726599
2	67799	56.14	944.19616165965
2	67800	56.15	944.3350506594
2	67819	56.16	944.47393965915
2	67820	56.17	944.6128286589
2	67821	56.18	944.75171765866
2	67822	56.19	944.89060665841
2	67823	56.2	945.02949565816
2	67826	56.21	945.16838465791
2	67827	56.22	945.30727365767
2	67846	56.23	945.44616265742
2	67847	56.24	945.58505165718
2	67848	56.25	945.72394065693
2	67867	56.26	945.86282965669
2	67868	56.27	946.00171865644
2	67869	56.28	946.1406076562
2	67870	56.29	946.27949665595
2	67871	56.3	946.41838565571
2	67874	56.31	946.55727465547
2	67875	56.32	946.69616365522
2	67894	56.33	946.83505265498
2	67895	56.34	946.97394165474
2	67896	56.35	947.1128306545
2	67915	56.36	947.25171965426
2	67916	56.37	947.39060865402
2	67917	56.38	947.52949765378
2	67918	56.39	947.66838665354
2	67919	56.4	947.8072756533
2	67922	56.41	947.94616465306
2	67923	56.42	948.08505365282
2	67942	56.43	948.22394265258
2	67943	56.44	948.36283165234
2	67944	56.45	948.5017206521
2	67963	56.46	948.64060965187
2	67964	56.47	948.77949865163
2	67965	56.48	948.91838765139
2	67966	56.49	949.05727665116
2	67967	56.5	949.19616565092
2	67970	56.51	949.33505465069
2	67971	56.52	949.47394365045
2	67990	56.53	949.61283265022
2	67991	56.54	949.75172164998
2	67992	56.55	949.89061064975
2	68011	56.56	950.02949964951
2	68012	56.57	950.16838864928
2	68013	56.58	950.30727764905
2	68014	56.59	950.44616664881
2	68015	56.6	950.58505564858
2	68018	56.61	950.72394464835
2	68019	56.62	950.86283364812
2	68038	56.63	951.00172264789
2	68039	56.64	951.14061164766
2	68040	56.65	951.27950064743
2	68059	56.66	951.4183896472
2	68060	56.67	951.55727864697
2	68061	56.68	951.69616764674
2	68062	56.69	951.83505664651
2	68063	56.7	951.97394564628
2	68066	56.71	952.11283464605
2	68067	56.72	952.25172364582
2	68086	56.73	952.3906126456
2	68087	56.74	952.52950164537
2	68088	56.75	952.66839064514
2	68107	56.76	952.80727964491
2	68108	56.77	952.94616864469
2	68109	56.78	953.08505764446
2	68110	56.79	953.22394664424
2	68111	56.8	953.36283564401
2	68114	56.81	953.50172464379
2	68115	56.82	953.64061364356
2	68134	56.83	953.77950264334
2	68135	56.84	953.91839164312
2	68136	56.85	954.05728064289
2	68155	56.86	954.19616964267
2	68156	56.87	954.33505864245
2	68157	56.88	954.47394764222
2	68158	56.89	954.612836642
2	68159	56.9	954.75172564178
2	68162	56.91	954.89061464156
2	68163	56.92	955.02950364134
2	68182	56.93	955.16839264112
2	68183	56.94	955.3072816409
2	68184	56.95	955.44617064068
2	68203	56.96	955.58505964046
2	68204	56.97	955.72394864024
2	68205	56.98	955.86283764002
2	68206	56.99	956.0017266398
2	68209	57	956.14061563958
2	68212	57.01	956.27950463937
2	68213	57.02	956.41839363915
2	68232	57.03	956.55728263893
2	68233	57.04	956.69617163871
2	68234	57.05	956.8350606385
2	68253	57.06	956.97394963828
2	68254	57.07	957.11283863806
2	68255	57.08	957.25172763785
2	68256	57.09	957.39061663763
2	68257	57.1	957.52950563742
2	68260	57.11	957.66839463721
2	68261	57.12	957.80728363699
2	68280	57.13	957.94617263678
2	68281	57.14	958.08506163656
2	68282	57.15	958.22395063635
2	68301	57.16	958.36283963614
2	68302	57.17	958.50172863593
2	68303	57.18	958.64061763571
2	68304	57.19	958.7795066355
2	68305	57.2	958.91839563529
2	68308	57.21	959.05728463508
2	68309	57.22	959.19617363487
2	68328	57.23	959.33506263466
2	68329	57.24	959.47395163445
2	68330	57.25	959.61284063424
2	68349	57.26	959.75172963403
2	68350	57.27	959.89061863382
2	68351	57.28	960.02950763361
2	68352	57.29	960.1683966334
2	68353	57.3	960.30728563319
2	68356	57.31	960.44617463299
2	68357	57.32	960.58506363278
2	68376	57.33	960.72395263257
2	68377	57.34	960.86284163236
2	68378	57.35	961.00173063216
2	68397	57.36	961.14061963195
2	68398	57.37	961.27950863174
2	68399	57.38	961.41839763154
2	68400	57.39	961.55728663133
2	68401	57.4	961.69617563113
2	68404	57.41	961.83506463092
2	68405	57.42	961.97395363072
2	68424	57.43	962.11284263052
2	68425	57.44	962.25173163031
2	68426	57.45	962.39062063011
2	68445	57.46	962.52950962991
2	68446	57.47	962.6683986297
2	68447	57.48	962.8072876295
2	68448	57.49	962.9461766293
2	68449	57.5	963.0850656291
2	68452	57.51	963.22395462889
2	68453	57.52	963.36284362869
2	68472	57.53	963.50173262849
2	68473	57.54	963.64062162829
2	68474	57.55	963.77951062809
2	68493	57.56	963.91839962789
2	68494	57.57	964.05728862769
2	68495	57.58	964.19617762749
2	68496	57.59	964.33506662729
2	68497	57.6	964.4739556271
2	68500	57.61	964.6128446269
2	68501	57.62	964.7517336267
2	68520	57.63	964.8906226265
2	68521	57.64	965.0295116263
2	68522	57.65	965.16840062611
2	68541	57.66	965.30728962591
2	68542	57.67	965.44617862571
2	68543	57.68	965.58506762552
2	68544	57.69	965.72395662532
2	68545	57.7	965.86284562513
2	68548	57.71	966.00173462493
2	68549	57.72	966.14062362474
2	68568	57.73	966.27951262454
2	68569	57.74	966.41840162435
2	68570	57.75	966.55729062415
2	68589	57.76	966.69617962396
2	68590	57.77	966.83506862377
2	68591	57.78	966.97395762357
2	68592	57.79	967.11284662338
2	68593	57.8	967.25173562319
2	68596	57.81	967.39062462299
2	68597	57.82	967.5295136228
2	68616	57.83	967.66840262261
2	68617	57.84	967.80729162242
2	68618	57.85	967.94618062223
2	68637	57.86	968.08506962204
2	68638	57.87	968.22395862185
2	68639	57.88	968.36284762166
2	68640	57.89	968.50173662147
2	68641	57.9	968.64062562128
2	68644	57.91	968.77951462109
2	68645	57.92	968.9184036209
2	68664	57.93	969.05729262071
2	68665	57.94	969.19618162052
2	68666	57.95	969.33507062033
2	68685	57.96	969.47395962015
2	68686	57.97	969.61284861996
2	68687	57.98	969.75173761977
2	68688	57.99	969.89062661958
2	68691	58	970.0295156194
2	68694	58.01	970.16840461921
2	68695	58.02	970.30729361903
2	68714	58.03	970.44618261884
2	68715	58.04	970.58507161865
2	68716	58.05	970.72396061847
2	68735	58.06	970.86284961828
2	68736	58.07	971.0017386181
2	68737	58.08	971.14062761791
2	68738	58.09	971.27951661773
2	68739	58.1	971.41840561755
2	68742	58.11	971.55729461736
2	68743	58.12	971.69618361718
2	68762	58.13	971.835072617
2	68763	58.14	971.97396161681
2	68764	58.15	972.11285061663
2	68783	58.16	972.25173961645
2	68784	58.17	972.39062861627
2	68785	58.18	972.52951761609
2	68786	58.19	972.66840661591
2	68787	58.2	972.80729561573
2	68790	58.21	972.94618461554
2	68791	58.22	973.08507361536
2	68810	58.23	973.22396261518
2	68811	58.24	973.362851615
2	68812	58.25	973.50174061482
2	68831	58.26	973.64062961465
2	68832	58.27	973.77951861447
2	68833	58.28	973.91840761429
2	68834	58.29	974.05729661411
2	68835	58.3	974.19618561393
2	68838	58.31	974.33507461375
2	68839	58.32	974.47396361358
2	68858	58.33	974.6128526134
2	68859	58.34	974.75174161322
2	68860	58.35	974.89063061304
2	68879	58.36	975.02951961287
2	68880	58.37	975.16840861269
2	68881	58.38	975.30729761252
2	68882	58.39	975.44618661234
2	68883	58.4	975.58507561217
2	68886	58.41	975.72396461199
2	68887	58.42	975.86285361182
2	68906	58.43	976.00174261164
2	68907	58.44	976.14063161147
2	68908	58.45	976.27952061129
2	68927	58.46	976.41840961112
2	68928	58.47	976.55729861095
2	68929	58.48	976.69618761077
2	68930	58.49	976.8350766106
2	68931	58.5	976.97396561043
2	68934	58.51	977.11285461025
2	68935	58.52	977.25174361008
2	68954	58.53	977.39063260991
2	68955	58.54	977.52952160974
2	68956	58.55	977.66841060957
2	68975	58.56	977.8072996094
2	68976	58.57	977.94618860923
2	68977	58.58	978.08507760906
2	68978	58.59	978.22396660889
2	68979	58.6	978.36285560872
2	68982	58.61	978.50174460855
2	68983	58.62	978.64063360838
2	69002	58.63	978.77952260821
2	69003	58.64	978.91841160804
2	69004	58.65	979.05730060787
2	69023	58.66	979.1961896077
2	69024	58.67	979.33507860753
2	69025	58.68	979.47396760736
2	69026	58.69	979.6128566072
2	69027	58.7	979.75174560703
2	69030	58.71	979.89063460686
2	69031	58.72	980.0295236067
2	69050	58.73	980.16841260653
2	69051	58.74	980.30730160636
2	69052	58.75	980.4461906062
2	69071	58.76	980.58507960603
2	69072	58.77	980.72396860587
2	69073	58.78	980.8628576057
2	69074	58.79	981.00174660554
2	69075	58.8	981.14063560537
2	69078	58.81	981.27952460521
2	69079	58.82	981.41841360504
2	69098	58.83	981.55730260488
2	69099	58.84	981.69619160471
2	69100	58.85	981.83508060455
2	69119	58.86	981.97396960439
2	69120	58.87	982.11285860422
2	69121	58.88	982.25174760406
2	69122	58.89	982.3906366039
2	69123	58.9	982.52952560374
2	69126	58.91	982.66841460358
2	69127	58.92	982.80730360341
2	69146	58.93	982.94619260325
2	69147	58.94	983.08508160309
2	69148	58.95	983.22397060293
2	69167	58.96	983.36285960277
2	69168	58.97	983.50174860261
2	69169	58.98	983.64063760245
2	69170	58.99	983.77952660229
2	69173	59	983.91841560213
2	69176	59.01	984.05730460197
2	69177	59.02	984.19619360181
2	69196	59.03	984.33508260165
2	69197	59.04	984.47397160149
2	69198	59.05	984.61286060133
2	69217	59.06	984.75174960118
2	69218	59.07	984.89063860102
2	69219	59.08	985.02952760086
2	69220	59.09	985.1684166007
2	69221	59.1	985.30730560055
2	69224	59.11	985.44619460039
2	69225	59.12	985.58508360023
2	69244	59.13	985.72397260008
2	69245	59.14	985.86286159992
2	69246	59.15	986.00175059976
2	69265	59.16	986.14063959961
2	69266	59.17	986.27952859945
2	69267	59.18	986.4184175993
2	69268	59.19	986.55730659914
2	69269	59.2	986.69619559899
2	69272	59.21	986.83508459883
2	69273	59.22	986.97397359868
2	69292	59.23	987.11286259852
2	69293	59.24	987.25175159837
2	69294	59.25	987.39064059822
2	69313	59.26	987.52952959806
2	69314	59.27	987.66841859791
2	69315	59.28	987.80730759776
2	69316	59.29	987.94619659761
2	69317	59.3	988.08508559745
2	69320	59.31	988.2239745973
2	69321	59.32	988.36286359715
2	69340	59.33	988.501752597
2	69341	59.34	988.64064159685
2	69342	59.35	988.77953059669
2	69361	59.36	988.91841959654
2	69362	59.37	989.05730859639
2	69363	59.38	989.19619759624
2	69364	59.39	989.33508659609
2	69365	59.4	989.47397559594
2	69368	59.41	989.61286459579
2	69369	59.42	989.75175359564
2	69388	59.43	989.89064259549
2	69389	59.44	990.02953159534
2	69390	59.45	990.1684205952
2	69409	59.46	990.30730959505
2	69410	59.47	990.4461985949
2	69411	59.48	990.58508759475
2	69412	59.49	990.7239765946
2	69413	59.5	990.86286559446
2	69416	59.51	991.00175459431
2	69417	59.52	991.14064359416
2	69436	59.53	991.27953259401
2	69437	59.54	991.41842159387
2	69438	59.55	991.55731059372
2	69457	59.56	991.69619959357
2	69458	59.57	991.83508859343
2	69459	59.58	991.97397759328
2	69460	59.59	992.11286659314
2	69461	59.6	992.25175559299
2	69464	59.61	992.39064459285
2	69465	59.62	992.5295335927
2	69484	59.63	992.66842259256
2	69485	59.64	992.80731159241
2	69486	59.65	992.94620059227
2	69505	59.66	993.08508959212
2	69506	59.67	993.22397859198
2	69507	59.68	993.36286759183
2	69508	59.69	993.50175659169
2	69509	59.7	993.64064559155
2	69512	59.71	993.77953459141
2	69513	59.72	993.91842359126
2	69532	59.73	994.05731259112
2	69533	59.74	994.19620159098
2	69534	59.75	994.33509059084
2	69553	59.76	994.47397959069
2	69554	59.77	994.61286859055
2	69555	59.78	994.75175759041
2	69556	59.79	994.89064659027
2	69557	59.8	995.02953559013
2	69560	59.81	995.16842458999
2	69561	59.82	995.30731358985
2	69580	59.83	995.44620258971
2	69581	59.84	995.58509158957
2	69582	59.85	995.72398058943
2	69601	59.86	995.86286958929
2	69602	59.87	996.00175858915
2	69603	59.88	996.14064758901
2	69604	59.89	996.27953658887
2	69605	59.9	996.41842558873
2	69608	59.91	996.55731458859
2	69609	59.92	996.69620358845
2	69628	59.93	996.83509258832
2	69629	59.94	996.97398158818
2	69630	59.95	997.11287058804
2	69649	59.96	997.2517595879
2	69650	59.97	997.39064858777
2	69651	59.98	997.52953758763
2	69652	59.99	997.66842658749
2	69655	60	997.80731558736
2	69658	60.01	997.94620458722
2	69659	60.02	998.08509358708
2	69678	60.03	998.22398258695
2	69679	60.04	998.36287158681
2	69680	60.05	998.50176058668
2	69699	60.06	998.64064958654
2	69700	60.07	998.77953858641
2	69701	60.08	998.91842758627
2	69702	60.09	999.05731658614
2	69703	60.1	999.196205586
2	69706	60.11	999.33509458587
2	69707	60.12	999.47398358573
2	69726	60.13	999.6128725856
2	69727	60.14	999.75176158547
2	69728	60.15	999.89065058533
2	69747	60.16	1000.0295395852
2	69748	60.17	1000.1684285851
2	69749	60.18	1000.3073175849
2	69750	60.19	1000.4462065848
2	69751	60.2	1000.5850955847
2	69754	60.21	1000.7239845845
2	69755	60.22	1000.8628735844
2	69774	60.23	1001.0017625843
2	69775	60.24	1001.1406515841
2	69776	60.25	1001.279540584
2	69795	60.26	1001.4184295839
2	69796	60.27	1001.5573185837
2	69797	60.28	1001.6962075836
2	69798	60.29	1001.8350965835
2	69799	60.3	1001.9739855834
2	69802	60.31	1002.1128745832
2	69803	60.32	1002.2517635831
2	69822	60.33	1002.390652583
2	69823	60.34	1002.5295415828
2	69824	60.35	1002.6684305827
2	69843	60.36	1002.8073195826
2	69844	60.37	1002.9462085824
2	69845	60.38	1003.0850975823
2	69846	60.39	1003.2239865822
2	69847	60.4	1003.3628755821
2	69850	60.41	1003.5017645819
2	69851	60.42	1003.6406535818
2	69870	60.43	1003.7795425817
2	69871	60.44	1003.9184315816
2	69872	60.45	1004.0573205814
2	69891	60.46	1004.1962095813
2	69892	60.47	1004.3350985812
2	69893	60.48	1004.473987581
2	69894	60.49	1004.6128765809
2	69895	60.5	1004.7517655808
2	69898	60.51	1004.8906545807
2	69899	60.52	1005.0295435805
2	69918	60.53	1005.1684325804
2	69919	60.54	1005.3073215803
2	69920	60.55	1005.4462105802
2	69939	60.56	1005.58509958
2	69940	60.57	1005.7239885799
2	69941	60.58	1005.8628775798
2	69942	60.59	1006.0017665797
2	69943	60.6	1006.1406555795
2	69946	60.61	1006.2795445794
2	69947	60.62	1006.4184335793
2	69966	60.63	1006.5573225792
2	69967	60.64	1006.696211579
2	69968	60.65	1006.8351005789
2	69987	60.66	1006.9739895788
2	69988	60.67	1007.1128785787
2	69989	60.68	1007.2517675786
2	69990	60.69	1007.3906565784
2	69991	60.7	1007.5295455783
2	69994	60.71	1007.6684345782
2	69995	60.72	1007.8073235781
2	70014	60.73	1007.9462125779
2	70015	60.74	1008.0851015778
2	70016	60.75	1008.2239905777
2	70035	60.76	1008.3628795776
2	70036	60.77	1008.5017685775
2	70037	60.78	1008.6406575773
2	70038	60.79	1008.7795465772
2	70039	60.8	1008.9184355771
2	70042	60.81	1009.057324577
2	70043	60.82	1009.1962135769
2	70062	60.83	1009.3351025767
2	70063	60.84	1009.4739915766
2	70064	60.85	1009.6128805765
2	70083	60.86	1009.7517695764
2	70084	60.87	1009.8906585763
2	70085	60.88	1010.0295475761
2	70086	60.89	1010.168436576
2	70087	60.9	1010.3073255759
2	70090	60.91	1010.4462145758
2	70091	60.92	1010.5851035757
2	70110	60.93	1010.7239925755
2	70111	60.94	1010.8628815754
2	70112	60.95	1011.0017705753
2	70131	60.96	1011.1406595752
2	70132	60.97	1011.2795485751
2	70133	60.98	1011.418437575
2	70134	60.99	1011.5573265748
2	70137	61	1011.6962155747
2	70140	61.01	1011.8351045746
2	70141	61.02	1011.9739935745
2	70160	61.03	1012.1128825744
2	70161	61.04	1012.2517715743
2	70162	61.05	1012.3906605741
2	70181	61.06	1012.529549574
2	70182	61.07	1012.6684385739
2	70183	61.08	1012.8073275738
2	70184	61.09	1012.9462165737
2	70185	61.1	1013.0851055736
2	70188	61.11	1013.2239945734
2	70189	61.12	1013.3628835733
2	70208	61.13	1013.5017725732
2	70209	61.14	1013.6406615731
2	70210	61.15	1013.779550573
2	70229	61.16	1013.9184395729
2	70230	61.17	1014.0573285728
2	70231	61.18	1014.1962175726
2	70232	61.19	1014.3351065725
2	70233	61.2	1014.4739955724
2	70236	61.21	1014.6128845723
2	70237	61.22	1014.7517735722
2	70256	61.23	1014.8906625721
2	70257	61.24	1015.029551572
2	70258	61.25	1015.1684405719
2	70277	61.26	1015.3073295717
2	70278	61.27	1015.4462185716
2	70279	61.28	1015.5851075715
2	70280	61.29	1015.7239965714
2	70281	61.3	1015.8628855713
2	70284	61.31	1016.0017745712
2	70285	61.32	1016.1406660221
2	70296	61.33	1016.2795647778
2	70297	61.34	1016.4184755972
2	70298	61.35	1016.5574031456
2	70299	61.36	1016.6963519969
2	70300	61.37	1016.8353266355
2	70301	61.38	1016.9743314577
2	70302	61.39	1017.1133707735
2	70303	61.4	1017.2524488086
2	70305	61.41	1017.3915697058
2	70306	61.42	1017.5307375265
2	70317	61.43	1017.6699562528
2	70318	61.44	1017.8092297883
2	70319	61.45	1017.9485619604
2	70320	61.46	1018.0879565212
2	70321	61.47	1018.2274171495
2	70322	61.48	1018.3669474518
2	70323	61.49	1018.5065509638
2	70324	61.5	1018.646231152
2	70326	61.51	1018.785991415
2	70327	61.52	1018.9258350845
2	70338	61.53	1019.0657654273
2	70339	61.54	1019.2057856456
2	70340	61.55	1019.3458988793
2	70341	61.56	1019.4861082064
2	70342	61.57	1019.6264166448
2	70343	61.58	1019.766827153
2	70344	61.59	1019.9073426316
2	70345	61.6	1020.0479659244
2	70347	61.61	1020.1886998192
2	70348	61.62	1020.3295470495
2	70359	61.63	1020.4705102949
2	70360	61.64	1020.6115921824
2	70361	61.65	1020.7527952879
2	70362	61.66	1020.8941221364
2	70363	61.67	1021.0355752036
2	70364	61.68	1021.1771569165
2	70365	61.69	1021.3188696547
2	70366	61.7	1021.4607157509
2	70368	61.71	1021.6026974923
2	70369	61.72	1021.7448171211
2	70380	61.73	1021.8870768356
2	70381	61.74	1022.029478791
2	70382	61.75	1022.1720251002
2	70383	61.76	1022.3147178347
2	70384	61.77	1022.4575590254
2	70385	61.78	1022.6005506634
2	70386	61.79	1022.7436947006
2	70387	61.8	1022.8869930508
2	70389	61.81	1023.0304475902
2	70390	61.82	1023.1740601582
2	70401	61.83	1023.3178325583
2	70402	61.84	1023.4617665583
2	70403	61.85	1023.6058638917
2	70404	61.86	1023.7501262577
2	70405	61.87	1023.8945553225
2	70406	61.88	1024.0391527193
2	70407	61.89	1024.1839200495
2	70408	61.9	1024.328858883
2	70410	61.91	1024.473970759
2	70411	61.92	1024.6192571865
2	70422	61.93	1024.7647196448

