version 3
run OvertakeNoGui-165-20241104-10:00:52-90832
attr configname OvertakeNoGui
attr datetime 20241104-10:00:52
attr datetimef 20241104-100052
attr experiment OvertakeNoGui
attr inifile omnetpp.ini
attr iterationvars "$leaderHeadway=1.2, $leaderSpeed=50, $controller=0, $pCSpeed=52, $pDeltaC=506"
attr iterationvarsd leaderHeadway=1.2/leaderSpeed=50/controller=0/pCSpeed=52/pDeltaC=506
attr iterationvarsf leaderHeadway=1.2,leaderSpeed=50,controller=0,pCSpeed=52,pDeltaC=506-
attr measurement "$leaderHeadway=1.2, $leaderSpeed=50, $controller=0, $pCSpeed=52, $pDeltaC=506"
attr network Overtake
attr processid 90832
attr repetition 0
attr replication #0
attr resultdir results
attr runnumber 165
attr seedset 0
itervar controller 0
itervar leaderHeadway 1.2
itervar leaderSpeed 50
itervar pCSpeed 52
itervar pDeltaC 506
config image-path ../../../../veins/images;../../images
config *.manager.command "\"sumo\""
config *.manager.ignoreGuiCommands true
config *.node[*].scenario_type "\"OvertakeScenario\""
config output-vector-file results/OvertakeNoGui_52_506_0.vec
config output-scalar-file results/OvertakeNoGui_52_506_0.sca
config cmdenv-express-mode false
config cmdenv-autoflush true
config cmdenv-status-frequency 10s
config num-rngs 6
config cmdenv-output-file log.txt
config cmdenv-redirect-output true
config network Overtake
config debug-on-errors true
config print-undisposed true
config *.playgroundSizeX 65000m
config *.playgroundSizeY 25000m
config *.playgroundSizeZ 50m
config sim-time-limit "360 s"
config *.annotations.draw false
config *.obstacles.debug false
config *.world.useTorus false
config *.world.use2D false
config *.manager.updateInterval 0.01s
config *.manager.host "\"localhost\""
config *.manager.moduleType "\"vtypeauto=org.car2x.plexe.PlatoonCar vtypehuman=0\""
config *.manager.moduleName "\"vtypeauto=node vtypehuman=0\""
config *.manager.moduleDisplayString "\"\""
config *.manager.autoShutdown true
config *.manager.margin 25
config *.manager.order -1
config *.connectionManager.sendDirect true
config *.connectionManager.maxInterfDist 2600m
config *.connectionManager.drawMaxIntfDist false
config *.**.nic.mac1609_4.useServiceChannel false
config *.**.nic.mac1609_4.txPower 100mW
config *.**.nic.mac1609_4.bitrate 6Mbps
config *.**.nic.mac1609_4.useAcks true
config *.**.nic.mac1609_4.ackErrorRate 0.0
config *.**.nic.mac1609_4.frameErrorRate 0.0
config *.**.nic.phy80211p.minPowerLevel -94dBm
config *.**.nic.phy80211p.maxTXPower 100mW
config *.**.nic.phy80211p.useNoiseFloor true
config *.**.nic.phy80211p.noiseFloor -95dBm
config *.**.nic.phy80211p.decider "xmldoc(\"config.xml\")"
config *.**.nic.phy80211p.analogueModels "xmldoc(\"config.xml\")"
config *.**.nic.phy80211p.usePropagationDelay true
config *.node[*].mobility.x 0
config *.node[*].mobility.y 0
config *.node[*].mobility.z 1.895
config *.shockwave[*].mobility.x 0
config *.shockwave[*].mobility.y 0
config *.shockwave[*].mobility.z 1.895
config seed-set 0
config **.seed 0
config *.node[*].prot.rng-0 2
config *.node[*].appl.rng-0 3
config *.node[*].scenario.rng-0 4
config *.manager.configFile "\"./sumocfg/overtake.sumo.cfg\""
config *.manager.launchConfig "xmldoc(\"./sumocfg/overtake.launchd.xml\")"
config *.node[*].helper_type "\"PositionHelper\""
config *.node[*].scenario.caccC1 0.5
config *.node[*].scenario.caccXi 1
config *.node[*].scenario.caccOmegaN "0.2 Hz"
config *.node[*].scenario.caccSpacing "5 m"
config *.node[*].scenario.engineTau "0.5 s"
config *.node[*].scenario.ploegH "0.5 s"
config *.node[*].scenario.ploegKp 0.2
config *.node[*].scenario.ploegKd 0.7
config *.node[*].scenario.useRealisticEngine false
config *.node[*].scenario.targetController "\"CACC\""
config *.node[*].scenario.accHeadway "0.1 s"
config *.node[*].scenario.leaderHeadway "1.2 s"
config *.node[*].scenario.leaderSpeed "50 kmph"
config *.node[*].appl_type "\"OvertakeApp\""
config *.node[*].appl.*.scalar-recording true
config *.node[*].appl.*.vector-recording true
config *.node[*].appl.overtakeManeuver "\"OvertakeManeuver\""
config *.node[*].protocol_type "\"SimplePlatooningBeaconing\""
config *.node[*].prot.*.scalar-recording true
config *.node[*].prot.*.vector-recording true
config *.node[*].prot.beaconingInterval "0.1 s"
config *.node[*].prot.priority 4
config *.node[*].prot.packetSize 200
config *.node[*].prot.useControllerAcceleration true
config **.traffic_type "\"OvertakeTrafficManager\""
config **.traffic.platoonInsertTime "0.1 s"
config **.traffic.platooningVType "\"vtypeauto\""
config **.numericController 0
config **.traffic.platoonInsertDistance 5m
config **.traffic.platoonInsertHeadway 0s
config **.traffic.platoonLeaderHeadway 1.2s
config **.traffic.platoonASpeed 50kmph
config **.traffic.platoonBSpeed 100kmph
config **.traffic.platoonCSpeed 52kmph
config **.traffic.platoonSizeA 2
config **.traffic.platoonSizeB 1
config **.traffic.platoonSizeC 1
config **.traffic.initialPositionDeltaA 150
config **.traffic.initialPositionDeltaB 50
config **.traffic.initialPositionDeltaC 506
config **.traffic.controller "\"CACC\""
config **.scalar-recording true
config **.vector-recording true

vector 0 Overtake.node[0].mobility posx ETV
vector 1 Overtake.node[0].mobility posy ETV
vector 2 Overtake.node[1].mobility posx ETV
vector 3 Overtake.node[1].mobility posy ETV
vector 4 Overtake.node[2].mobility posx ETV
vector 5 Overtake.node[2].mobility posy ETV
vector 6 Overtake.node[3].mobility posx ETV
vector 7 Overtake.node[3].mobility posy ETV
vector 8 Overtake.node[0].mobility speed ETV
vector 9 Overtake.node[1].mobility speed ETV
vector 10 Overtake.node[2].mobility speed ETV
vector 11 Overtake.node[3].mobility speed ETV
vector 12 Overtake.node[0].mobility acceleration ETV
vector 13 Overtake.node[0].mobility co2emission ETV
vector 14 Overtake.node[1].mobility acceleration ETV
vector 15 Overtake.node[1].mobility co2emission ETV
vector 16 Overtake.node[2].mobility acceleration ETV
vector 17 Overtake.node[2].mobility co2emission ETV
vector 18 Overtake.node[3].mobility acceleration ETV
vector 19 Overtake.node[3].mobility co2emission ETV
vector 20 Overtake.node[0].appl distance ETV
vector 21 Overtake.node[0].appl relativeSpeed ETV
vector 22 Overtake.node[0].appl nodeId ETV
vector 23 Overtake.node[0].appl acceleration ETV
vector 24 Overtake.node[0].appl controllerAcceleration ETV
vector 25 Overtake.node[0].appl speed ETV
vector 26 Overtake.node[0].appl posx ETV
vector 27 Overtake.node[0].appl posy ETV
vector 28 Overtake.node[1].appl distance ETV
vector 29 Overtake.node[1].appl relativeSpeed ETV
vector 30 Overtake.node[1].appl nodeId ETV
vector 31 Overtake.node[1].appl acceleration ETV
vector 32 Overtake.node[1].appl controllerAcceleration ETV
vector 33 Overtake.node[1].appl speed ETV
vector 34 Overtake.node[1].appl posx ETV
vector 35 Overtake.node[1].appl posy ETV
vector 36 Overtake.node[2].appl distance ETV
vector 37 Overtake.node[2].appl relativeSpeed ETV
vector 38 Overtake.node[2].appl nodeId ETV
vector 39 Overtake.node[2].appl acceleration ETV
vector 40 Overtake.node[2].appl controllerAcceleration ETV
vector 41 Overtake.node[2].appl speed ETV
vector 42 Overtake.node[2].appl posx ETV
vector 43 Overtake.node[2].appl posy ETV
vector 44 Overtake.node[3].appl distance ETV
vector 45 Overtake.node[3].appl relativeSpeed ETV
vector 46 Overtake.node[3].appl nodeId ETV
vector 47 Overtake.node[3].appl acceleration ETV
vector 48 Overtake.node[3].appl controllerAcceleration ETV
vector 49 Overtake.node[3].appl speed ETV
vector 50 Overtake.node[3].appl posx ETV
vector 51 Overtake.node[3].appl posy ETV
vector 52 Overtake.node[1].prot leaderDelay ETV
vector 53 Overtake.node[1].prot leaderDelayId ETV
vector 54 Overtake.node[1].prot frontDelay ETV
vector 55 Overtake.node[1].prot frontDelayId ETV
vector 56 Overtake.node[0].prot nodeId ETV
vector 57 Overtake.node[0].prot busyTime ETV
vector 58 Overtake.node[0].prot collisions ETV
vector 59 Overtake.node[1].prot nodeId ETV
vector 60 Overtake.node[1].prot busyTime ETV
vector 61 Overtake.node[1].prot collisions ETV
vector 62 Overtake.node[2].prot nodeId ETV
vector 63 Overtake.node[2].prot busyTime ETV
vector 64 Overtake.node[2].prot collisions ETV
vector 65 Overtake.node[3].prot nodeId ETV
vector 66 Overtake.node[3].prot busyTime ETV
vector 67 Overtake.node[3].prot collisions ETV
48	26	0.21	0.00437036
48	176	0.31	0.00426837
48	326	0.41	0.00410815
48	476	0.51	0.00390303
48	626	0.61	0.00366476
48	776	0.71	0.00340356
48	926	0.81	0.00312825
48	1076	0.91	0.00284628
48	1230	1.01	0.00256392
48	1381	1.11	0.0022863
48	1532	1.21	0.00201755
48	1683	1.31	0.00176089
48	2046	1.41	0.00151876
48	2196	1.51	0.00129289
48	2346	1.61	0.00108441
48	2496	1.71	0.00089393
48	2646	1.81	0.000721638
48	2796	1.91	0.000567355
48	2950	2.01	0.000430614
48	3100	2.11	0.000310715
48	3250	2.21	0.000206783
48	3400	2.31	0.000117814
48	3763	2.41	4.27149e-05
48	3914	2.51	-1.96584e-05
48	4064	2.61	-7.04736e-05
48	4214	2.71	-0.000110896
48	4364	2.81	-0.000142067
48	4514	2.91	-0.00016509
48	4668	3.01	-0.000181016
48	4818	3.11	-0.000190834
48	4968	3.21	-0.000195466
48	5118	3.31	-0.00019576
48	5269	3.41	-0.000192489
48	5676	3.51	-0.000186354
48	5826	3.61	-0.000177979
48	5976	3.71	-0.000167916
48	6126	3.81	-0.000156649
48	6276	3.91	-0.000144597
48	6430	4.01	-0.000132116
48	6580	4.11	-0.000119508
48	6730	4.21	-0.000107021
48	6880	4.31	-9.48587e-05
48	7030	4.41	-8.31796e-05
48	7393	4.51	-7.21068e-05
48	7544	4.61	-6.17299e-05
48	7694	4.71	-5.21101e-05
48	7844	4.81	-4.32839e-05
48	7994	4.91	-3.52669e-05
48	8148	5.01	-2.80577e-05
48	8298	5.11	-2.16404e-05
48	8448	5.21	-1.59878e-05
48	8598	5.31	-1.1064e-05
48	8748	5.41	-6.82631e-06
48	8899	5.51	-3.22748e-06
48	9262	5.61	-2.17308e-07
48	9412	5.71	2.25598e-06
48	9562	5.81	4.24448e-06
48	9712	5.91	5.79961e-06
48	9866	6.01	6.97134e-06
48	10016	6.11	7.80753e-06
48	10166	6.21	8.35346e-06
48	10316	6.31	8.65149e-06
48	10466	6.41	8.7408e-06
48	10616	6.51	8.6573e-06
48	11023	6.61	8.43352e-06
48	11174	6.71	8.09868e-06
48	11324	6.81	7.67874e-06
48	11474	6.91	7.19651e-06
48	11628	7.01	6.67185e-06
48	11778	7.11	6.12177e-06
48	11928	7.21	5.56072e-06
48	12078	7.31	5.00073e-06
48	12228	7.41	4.45164e-06
48	12378	7.51	3.92136e-06
48	12529	7.61	3.41601e-06
48	12892	7.71	2.94018e-06
48	13042	7.81	2.4971e-06
48	13192	7.91	2.08883e-06
48	13346	8.01	1.71644e-06
48	13496	8.11	1.38016e-06
48	13646	8.21	1.07955e-06
48	13796	8.31	8.13576e-07
48	13946	8.41	5.80794e-07
48	14096	8.51	3.79414e-07
48	14246	8.61	2.07407e-07
48	14609	8.71	6.25821e-08
48	14760	8.81	-5.73475e-08
48	14910	8.91	-1.54703e-07
48	15064	9.01	-2.31794e-07
48	15214	9.11	-2.90877e-07
48	15364	9.21	-3.3413e-07
48	15514	9.31	-3.63618e-07
48	15664	9.41	-3.81288e-07
48	15814	9.51	-3.88944e-07
48	15964	9.61	-3.88249e-07
48	16115	9.71	-3.80715e-07
48	16522	9.81	-3.67706e-07
48	16672	9.91	-3.50439e-07
48	16826	10.01	-3.29989e-07
48	16976	10.11	-3.07294e-07
48	17126	10.21	-2.83164e-07
48	17276	10.31	-2.58291e-07
48	17426	10.41	-2.33254e-07
48	17576	10.51	-2.0853e-07
48	17726	10.61	-1.84509e-07
48	17876	10.71	-1.61493e-07
48	18239	10.81	-1.39716e-07
48	18390	10.91	-1.19345e-07
48	18544	11.01	-1.00494e-07
48	18694	11.11	-8.32262e-08
48	18844	11.21	-6.7568e-08
48	18994	11.31	-5.35112e-08
48	19144	11.41	-4.10198e-08
48	19294	11.51	-3.00368e-08
48	19444	11.61	-2.04881e-08
48	19594	11.71	-1.22876e-08
48	19745	11.81	-5.33973e-09
48	20108	11.91	4.55636e-10
48	20262	12.01	5.20171e-09
48	20412	12.11	9.00169e-09
48	20562	12.21	1.19577e-08
48	20712	12.31	1.41682e-08
48	20862	12.41	1.57275e-08
48	21012	12.51	1.67244e-08
48	21162	12.61	1.72424e-08
48	21312	12.71	1.7358e-08
48	21462	12.81	1.71415e-08
48	21869	12.91	1.66565e-08
48	22024	13.01	1.59599e-08
48	22174	13.11	1.51022e-08
48	22324	13.21	1.41277e-08
48	22474	13.31	1.30749e-08
48	22624	13.41	1.19766e-08
48	22774	13.51	1.08608e-08
48	22924	13.61	9.75078e-09
48	23074	13.71	8.66525e-09
48	23224	13.81	7.61933e-09
48	23375	13.91	6.62457e-09
48	23742	14.01	5.68967e-09
48	23892	14.11	4.82068e-09
48	24042	14.21	4.02149e-09
48	24192	14.31	3.29354e-09
48	24342	14.41	2.63736e-09
48	24492	14.51	2.05187e-09
48	24642	14.61	1.53459e-09
48	24792	14.71	1.08287e-09
48	24942	14.81	6.92779e-10
48	25092	14.91	3.60245e-10
48	25459	15.01	8.11795e-11
48	25610	15.11	-1.49392e-10
48	25760	15.21	-3.35731e-10
48	25910	15.31	-4.82636e-10
48	26060	15.41	-5.94369e-10
48	26210	15.51	-6.75549e-10
48	26360	15.61	-7.29905e-10
48	26510	15.71	-7.61524e-10
48	26660	15.81	-7.73781e-10
48	26810	15.91	-7.69873e-10
48	26964	16.01	-7.5282e-10
48	27114	16.11	-7.25464e-10
48	27264	16.21	-6.89937e-10
48	27414	16.31	-6.4837e-10
48	27564	16.41	-6.02718e-10
48	27714	16.51	-5.54401e-10
48	27864	16.61	-5.05018e-10
48	28014	16.71	-4.5528e-10
48	28164	16.81	-4.06253e-10
48	28314	16.91	-3.58824e-10
48	28468	17.01	-3.13527e-10
48	28618	17.11	-2.70717e-10
48	28768	17.21	-2.30749e-10
48	28918	17.31	-1.93801e-10
48	29068	17.41	-1.6005e-10
48	29218	17.51	-1.29496e-10
48	29368	17.61	-1.02141e-10
48	29518	17.71	-7.78044e-11
48	29668	17.81	-5.64881e-11
48	29818	17.91	-3.8014e-11
48	29972	18.01	-2.20268e-11
48	30122	18.11	-8.70415e-12
48	30272	18.21	2.4869e-12
48	30422	18.31	1.1724e-11
48	30572	18.41	1.88294e-11
48	30722	18.51	2.45137e-11
48	30872	18.61	2.8777e-11
48	31022	18.71	3.16192e-11
48	31172	18.81	3.33955e-11
48	31322	18.91	3.42837e-11
48	31476	19.01	3.44613e-11
48	31626	19.11	3.39284e-11
48	31776	19.21	3.28626e-11
48	31926	19.31	3.14415e-11
48	32076	19.41	2.98428e-11
48	32226	19.51	2.78888e-11
48	32376	19.61	2.57572e-11
48	32526	19.71	2.34479e-11
48	32676	19.81	2.13163e-11
48	32826	19.91	1.91847e-11
48	32980	20.01	1.7053e-11
48	33130	20.11	1.49214e-11
48	33280	20.21	1.3145e-11
48	33430	20.31	1.13687e-11
48	33580	20.41	9.76996e-12
48	33730	20.51	8.52651e-12
48	33880	20.61	7.28306e-12
48	34030	20.71	6.03961e-12
48	34180	20.81	5.15143e-12
48	34330	20.91	4.26326e-12
48	34484	21.01	3.37508e-12
48	34634	21.11	2.66454e-12
48	34784	21.21	1.95399e-12
48	34934	21.31	1.24345e-12
48	35084	21.41	7.10543e-13
48	35234	21.51	3.55271e-13
48	35384	21.61	-1.77636e-13
48	35534	21.71	-5.32907e-13
48	35684	21.81	-8.88178e-13
48	35834	21.91	-1.24345e-12
48	35988	22.01	-1.59872e-12
48	36138	22.11	-1.77636e-12
48	36288	22.21	-2.13163e-12
48	36438	22.31	-2.30926e-12
48	36588	22.41	-2.4869e-12
48	36738	22.51	-2.66454e-12
48	36888	22.61	-2.84217e-12
48	37038	22.71	-3.01981e-12
48	37188	22.81	-3.19744e-12
48	37338	22.91	-3.37508e-12
48	37492	23.01	-3.37508e-12
48	37642	23.11	-3.55271e-12
48	37792	23.21	-3.55271e-12
48	37942	23.31	-3.73035e-12
48	38092	23.41	-3.73035e-12
48	38242	23.51	-3.73035e-12
48	38392	23.61	-3.90799e-12
48	38542	23.71	-3.90799e-12
48	38692	23.81	-3.90799e-12
48	38842	23.91	-4.08562e-12
48	38996	24.01	-4.08562e-12
48	39146	24.11	-4.08562e-12
48	39296	24.21	-4.08562e-12
48	39446	24.31	-4.08562e-12
48	39596	24.41	-4.26326e-12
48	39746	24.51	-4.26326e-12
48	39896	24.61	-4.26326e-12
48	40046	24.71	-4.26326e-12
48	40196	24.81	-4.26326e-12
48	40346	24.91	-4.26326e-12
48	40500	25.01	-4.26326e-12
48	40650	25.11	-4.26326e-12
48	40800	25.21	-4.26326e-12
48	40950	25.31	-4.26326e-12
48	41100	25.41	-4.44089e-12
48	41250	25.51	-4.44089e-12
48	41400	25.61	-4.44089e-12
48	41550	25.71	-4.44089e-12
48	41700	25.81	-4.44089e-12
48	41850	25.91	-4.44089e-12
48	42004	26.01	-4.44089e-12
48	42154	26.11	-4.44089e-12
48	42304	26.21	-4.44089e-12
48	42454	26.31	-4.44089e-12
48	42604	26.41	-4.44089e-12
48	42754	26.51	-4.44089e-12
48	42904	26.61	-4.44089e-12
48	43055	26.71	-4.44089e-12
48	43205	26.81	-4.44089e-12
48	43355	26.91	-4.44089e-12
48	43509	27.01	-4.44089e-12
48	43659	27.11	-4.44089e-12
48	43809	27.21	-4.44089e-12
48	43959	27.31	-4.44089e-12
48	44109	27.41	-4.44089e-12
48	44259	27.51	-4.44089e-12
48	44409	27.61	-4.44089e-12
48	44559	27.71	-4.44089e-12
48	44709	27.81	-4.44089e-12
48	44859	27.91	-4.44089e-12
48	45013	28.01	-4.44089e-12
48	45163	28.11	-4.44089e-12
48	45313	28.21	-4.44089e-12
48	45463	28.31	-4.44089e-12
48	45613	28.41	-4.44089e-12
48	45763	28.51	-4.44089e-12
48	45913	28.61	-4.44089e-12
48	46063	28.71	-4.44089e-12
48	46213	28.81	-4.44089e-12
48	46363	28.91	-4.44089e-12
48	46517	29.01	-4.44089e-12
48	46667	29.11	-4.44089e-12
48	46817	29.21	-4.44089e-12
48	46967	29.31	-4.44089e-12
48	47117	29.41	-4.44089e-12
48	47267	29.51	-4.44089e-12
48	47417	29.61	-4.44089e-12
48	47567	29.71	-4.44089e-12
48	47717	29.81	-4.44089e-12
48	47867	29.91	-4.44089e-12
48	48021	30.01	-4.44089e-12
48	48171	30.11	-4.44089e-12
48	48321	30.21	-4.44089e-12
48	48471	30.31	-4.44089e-12
48	48621	30.41	-4.44089e-12
48	48771	30.51	-4.44089e-12
48	48921	30.61	-4.44089e-12
48	49071	30.71	-4.44089e-12
48	49221	30.81	-4.44089e-12
48	49371	30.91	-4.44089e-12
48	49525	31.01	-4.44089e-12
48	49675	31.11	-4.44089e-12
48	49825	31.21	-4.44089e-12
48	49975	31.31	-4.44089e-12
48	50125	31.41	-4.44089e-12
48	50275	31.51	-4.44089e-12
48	50425	31.61	-4.44089e-12
48	50575	31.71	-4.44089e-12
48	50725	31.81	-4.44089e-12
48	50875	31.91	-4.44089e-12
48	51029	32.01	-4.44089e-12
48	51179	32.11	-4.44089e-12
48	51329	32.21	-4.44089e-12
48	51479	32.31	-4.44089e-12
48	51629	32.41	-4.44089e-12
48	51779	32.51	-4.44089e-12
48	51929	32.61	-4.44089e-12
48	52079	32.71	-4.44089e-12
48	52229	32.81	-4.44089e-12
48	52379	32.91	-4.44089e-12
48	52533	33.01	-4.44089e-12
48	52683	33.11	-4.44089e-12
48	52833	33.21	-4.44089e-12
48	52983	33.31	-4.44089e-12
48	53133	33.41	-4.44089e-12
48	53283	33.51	-4.44089e-12
48	53433	33.61	-4.44089e-12
48	53583	33.71	-4.44089e-12
48	53733	33.81	-4.44089e-12
48	53883	33.91	-4.44089e-12
48	54037	34.01	-4.44089e-12
48	54187	34.11	-4.44089e-12
48	54337	34.21	-4.44089e-12
48	54487	34.31	-4.44089e-12
47	26	0.21	0.000716383
47	176	0.31	0.00136341
47	326	0.41	0.00186974
47	476	0.51	0.00225157
47	626	0.61	0.00252443
47	776	0.71	0.00270298
47	926	0.81	0.00280098
47	1076	0.91	0.00283113
47	1230	1.01	0.00280509
47	1381	1.11	0.00273342
47	1532	1.21	0.00262559
47	1683	1.31	0.00249005
47	2046	1.41	0.00233419
47	2196	1.51	0.00216447
47	2346	1.61	0.00198642
47	2496	1.71	0.00180472
47	2646	1.81	0.0016233
47	2796	1.91	0.00144536
47	2950	2.01	0.00127346
47	3100	2.11	0.0011096
47	3250	2.21	0.000955278
47	3400	2.31	0.000811546
47	3763	2.41	0.00067908
47	3914	2.51	0.000558232
47	4064	2.61	0.000449082
47	4214	2.71	0.000351487
47	4364	2.81	0.00026512
47	4514	2.91	0.000189514
47	4668	3.01	0.000124092
47	4818	3.11	6.81972e-05
47	4968	3.21	2.11209e-05
47	5118	3.31	-1.78769e-05
47	5269	3.41	-4.9548e-05
47	5676	3.51	-7.46407e-05
47	5826	3.61	-9.38867e-05
47	5976	3.71	-0.000107991
47	6126	3.81	-0.000117625
47	6276	3.91	-0.000123418
47	6430	4.01	-0.000125957
47	6580	4.11	-0.000125781
47	6730	4.21	-0.00012338
47	6880	4.31	-0.000119198
47	7030	4.41	-0.000113629
47	7393	4.51	-0.000107022
47	7544	4.61	-9.96832e-05
47	7694	4.71	-9.18747e-05
47	7844	4.81	-8.38211e-05
47	7994	4.91	-7.57109e-05
47	8148	5.01	-6.76999e-05
47	8298	5.11	-5.99137e-05
47	8448	5.21	-5.24518e-05
47	8598	5.31	-4.53896e-05
47	8748	5.41	-3.87821e-05
47	8899	5.51	-3.2666e-05
47	9262	5.61	-2.70628e-05
47	9412	5.71	-2.19809e-05
47	9562	5.81	-1.74176e-05
47	9712	5.91	-1.33618e-05
47	9866	6.01	-9.79494e-06
47	10016	6.11	-6.6932e-06
47	10166	6.21	-4.02864e-06
47	10316	6.31	-1.77051e-06
47	10466	6.41	1.13691e-07
47	10616	6.51	1.65735e-06
47	11023	6.61	2.89397e-06
47	11174	6.71	3.85652e-06
47	11324	6.81	4.57698e-06
47	11474	6.91	5.08591e-06
47	11628	7.01	5.41219e-06
47	11778	7.11	5.58279e-06
47	11928	7.21	5.6226e-06
47	12078	7.31	5.55442e-06
47	12228	7.41	5.39886e-06
47	12378	7.51	5.17441e-06
47	12529	7.61	4.89748e-06
47	12892	7.71	4.58246e-06
47	13042	7.81	4.24184e-06
47	13192	7.91	3.88634e-06
47	13346	8.01	3.52499e-06
47	13496	8.11	3.16534e-06
47	13646	8.21	2.81353e-06
47	13796	8.31	2.47446e-06
47	13946	8.41	2.15192e-06
47	14096	8.51	1.84873e-06
47	14246	8.61	1.56685e-06
47	14609	8.71	1.30751e-06
47	14760	8.81	1.0713e-06
47	14910	8.91	8.58321e-07
47	15064	9.01	6.68206e-07
47	15214	9.11	5.0026e-07
47	15364	9.21	3.53514e-07
47	15514	9.31	2.2679e-07
47	15664	9.41	1.18765e-07
47	15814	9.51	2.80163e-08
47	15964	9.61	-4.69315e-08
47	16115	9.71	-1.07573e-07
47	16522	9.81	-1.55391e-07
47	16672	9.91	-1.91831e-07
47	16826	10.01	-2.18284e-07
47	16976	10.11	-2.3607e-07
47	17126	10.21	-2.46426e-07
47	17276	10.31	-2.50502e-07
47	17426	10.41	-2.49352e-07
47	17576	10.51	-2.43937e-07
47	17726	10.61	-2.35119e-07
47	17876	10.71	-2.23669e-07
47	18239	10.81	-2.10264e-07
47	18390	10.91	-1.95496e-07
47	18544	11.01	-1.79874e-07
47	18694	11.11	-1.63833e-07
47	18844	11.21	-1.47736e-07
47	18994	11.31	-1.3188e-07
47	19144	11.41	-1.16507e-07
47	19294	11.51	-1.01806e-07
47	19444	11.61	-8.7921e-08
47	19594	11.71	-7.49532e-08
47	19745	11.81	-6.29706e-08
47	20108	11.91	-5.20114e-08
47	20262	12.01	-4.20881e-08
47	20412	12.11	-3.31928e-08
47	20562	12.21	-2.53001e-08
47	20712	12.31	-1.83714e-08
47	20862	12.41	-1.23581e-08
47	21012	12.51	-7.2033e-09
47	21162	12.61	-2.84555e-09
47	21312	12.71	7.80176e-10
47	21462	12.81	3.74065e-09
47	21869	12.91	6.10232e-09
47	22024	13.01	7.93019e-09
47	22174	13.11	9.2875e-09
47	22324	13.21	1.02345e-08
47	22474	13.31	1.08278e-08
47	22624	13.41	1.11202e-08
47	22774	13.51	1.11603e-08
47	22924	13.61	1.09935e-08
47	23074	13.71	1.06596e-08
47	23224	13.81	1.01943e-08
47	23375	13.91	9.62999e-09
47	23742	14.01	8.99423e-09
47	23892	14.11	8.31104e-09
47	24042	14.21	7.60174e-09
47	24192	14.31	6.88321e-09
47	24342	14.41	6.17053e-09
47	24492	14.51	5.47526e-09
47	24642	14.61	4.80682e-09
47	24792	14.71	4.17213e-09
47	24942	14.81	3.57652e-09
47	25092	14.91	3.02407e-09
47	25459	15.01	2.51639e-09
47	25610	15.11	2.05471e-09
47	25760	15.21	1.63922e-09
47	25910	15.31	1.26885e-09
47	26060	15.41	9.42357e-10
47	26210	15.51	6.57607e-10
47	26360	15.61	4.12115e-10
47	26510	15.71	2.0357e-10
47	26660	15.81	2.8777e-11
47	26810	15.91	-1.15286e-10
47	26964	16.01	-2.31459e-10
47	27114	16.11	-3.22586e-10
47	27264	16.21	-3.91509e-10
47	27414	16.31	-4.40536e-10
47	27564	16.41	-4.73399e-10
47	27714	16.51	-4.91696e-10
47	27864	16.61	-4.97913e-10
47	28014	16.71	-4.9436e-10
47	28164	16.81	-4.82281e-10
47	28314	16.91	-4.63629e-10
47	28468	17.01	-4.40181e-10
47	28618	17.11	-4.13003e-10
47	28768	17.21	-3.83338e-10
47	28918	17.31	-3.51896e-10
47	29068	17.41	-3.19922e-10
47	29218	17.51	-2.87947e-10
47	29368	17.61	-2.56506e-10
47	29518	17.71	-2.26308e-10
47	29668	17.81	-1.97531e-10
47	29818	17.91	-1.70353e-10
47	29972	18.01	-1.44951e-10
47	30122	18.11	-1.21503e-10
47	30272	18.21	-1.00009e-10
47	30422	18.31	-8.06466e-11
47	30572	18.41	-6.34159e-11
47	30722	18.51	-4.81393e-11
47	30872	18.61	-3.4639e-11
47	31022	18.71	-2.2915e-11
47	31172	18.81	-1.29674e-11
47	31322	18.91	-4.44089e-12
47	31476	19.01	2.66454e-12
47	31626	19.11	8.17124e-12
47	31776	19.21	1.26121e-11
47	31926	19.31	1.61648e-11
47	32076	19.41	1.86517e-11
47	32226	19.51	2.04281e-11
47	32376	19.61	2.16716e-11
47	32526	19.71	2.16716e-11
47	32676	19.81	2.16716e-11
47	32826	19.91	2.16716e-11
47	32980	20.01	2.14939e-11
47	33130	20.11	1.97176e-11
47	33280	20.21	1.79412e-11
47	33430	20.31	1.61648e-11
47	33580	20.41	1.43885e-11
47	33730	20.51	1.29674e-11
47	33880	20.61	1.1724e-11
47	34030	20.71	1.04805e-11
47	34180	20.81	9.59233e-12
47	34330	20.91	8.70415e-12
47	34484	21.01	7.81597e-12
47	34634	21.11	7.10543e-12
47	34784	21.21	6.39488e-12
47	34934	21.31	5.68434e-12
47	35084	21.41	5.15143e-12
47	35234	21.51	4.79616e-12
47	35384	21.61	4.26326e-12
47	35534	21.71	3.90799e-12
47	35684	21.81	3.55271e-12
47	35834	21.91	3.19744e-12
47	35988	22.01	2.84217e-12
47	36138	22.11	2.66454e-12
47	36288	22.21	2.30926e-12
47	36438	22.31	2.13163e-12
47	36588	22.41	1.95399e-12
47	36738	22.51	1.77636e-12
47	36888	22.61	1.59872e-12
47	37038	22.71	1.42109e-12
47	37188	22.81	1.24345e-12
47	37338	22.91	1.06581e-12
47	37492	23.01	1.06581e-12
47	37642	23.11	8.88178e-13
47	37792	23.21	8.88178e-13
47	37942	23.31	7.10543e-13
47	38092	23.41	7.10543e-13
47	38242	23.51	7.10543e-13
47	38392	23.61	5.32907e-13
47	38542	23.71	5.32907e-13
47	38692	23.81	5.32907e-13
47	38842	23.91	3.55271e-13
47	38996	24.01	3.55271e-13
47	39146	24.11	3.55271e-13
47	39296	24.21	3.55271e-13
47	39446	24.31	3.55271e-13
47	39596	24.41	1.77636e-13
47	39746	24.51	1.77636e-13
47	39896	24.61	1.77636e-13
47	40046	24.71	1.77636e-13
47	40196	24.81	1.77636e-13
47	40346	24.91	1.77636e-13
47	40500	25.01	1.77636e-13
47	40650	25.11	1.77636e-13
47	40800	25.21	1.77636e-13
47	40950	25.31	1.77636e-13
47	41100	25.41	0
47	41250	25.51	0
47	41400	25.61	0
47	41550	25.71	0
47	41700	25.81	0
47	41850	25.91	0
47	42004	26.01	0
47	42154	26.11	0
47	42304	26.21	0
47	42454	26.31	0
47	42604	26.41	0
47	42754	26.51	0
47	42904	26.61	0
47	43055	26.71	0
47	43205	26.81	0
47	43355	26.91	0
47	43509	27.01	0
47	43659	27.11	0
47	43809	27.21	0
47	43959	27.31	0
47	44109	27.41	0
47	44259	27.51	0
47	44409	27.61	0
47	44559	27.71	0
47	44709	27.81	0
47	44859	27.91	0
47	45013	28.01	0
47	45163	28.11	0
47	45313	28.21	0
47	45463	28.31	0
47	45613	28.41	0
47	45763	28.51	0
47	45913	28.61	0
47	46063	28.71	0
47	46213	28.81	0
47	46363	28.91	0
47	46517	29.01	0
47	46667	29.11	0
47	46817	29.21	0
47	46967	29.31	0
47	47117	29.41	0
47	47267	29.51	0
47	47417	29.61	0
47	47567	29.71	0
47	47717	29.81	0
47	47867	29.91	0
47	48021	30.01	0
47	48171	30.11	0
47	48321	30.21	0
47	48471	30.31	0
47	48621	30.41	0
47	48771	30.51	0
47	48921	30.61	0
47	49071	30.71	0
47	49221	30.81	0
47	49371	30.91	0
47	49525	31.01	0
47	49675	31.11	0
47	49825	31.21	0
47	49975	31.31	0
47	50125	31.41	0
47	50275	31.51	0
47	50425	31.61	0
47	50575	31.71	0
47	50725	31.81	0
47	50875	31.91	0
47	51029	32.01	0
47	51179	32.11	0
47	51329	32.21	0
47	51479	32.31	0
47	51629	32.41	0
47	51779	32.51	0
47	51929	32.61	0
47	52079	32.71	0
47	52229	32.81	0
47	52379	32.91	0
47	52533	33.01	0
47	52683	33.11	0
47	52833	33.21	0
47	52983	33.31	0
47	53133	33.41	0
47	53283	33.51	0
47	53433	33.61	0
47	53583	33.71	0
47	53733	33.81	0
47	53883	33.91	0
47	54037	34.01	0
47	54187	34.11	0
47	54337	34.21	0
47	54487	34.31	0
51	26	0.21	1.6
51	176	0.31	1.6
51	326	0.41	1.6
51	476	0.51	1.6
51	626	0.61	1.6
51	776	0.71	1.6
51	926	0.81	1.6
51	1076	0.91	1.6
51	1230	1.01	1.6
51	1381	1.11	1.6
51	1532	1.21	1.6
51	1683	1.31	1.6
51	2046	1.41	1.6
51	2196	1.51	1.6
51	2346	1.61	1.6
51	2496	1.71	1.6
51	2646	1.81	1.6
51	2796	1.91	1.6
51	2950	2.01	1.6
51	3100	2.11	1.6
51	3250	2.21	1.6
51	3400	2.31	1.6
51	3763	2.41	1.6
51	3914	2.51	1.6
51	4064	2.61	1.6
51	4214	2.71	1.6
51	4364	2.81	1.6
51	4514	2.91	1.6
51	4668	3.01	1.6
51	4818	3.11	1.6
51	4968	3.21	1.6
51	5118	3.31	1.6
51	5269	3.41	1.6
51	5676	3.51	1.6
51	5826	3.61	1.6
51	5976	3.71	1.6
51	6126	3.81	1.6
51	6276	3.91	1.6
51	6430	4.01	1.6
51	6580	4.11	1.6
51	6730	4.21	1.6
51	6880	4.31	1.6
51	7030	4.41	1.6
51	7393	4.51	1.6
51	7544	4.61	1.6
51	7694	4.71	1.6
51	7844	4.81	1.6
51	7994	4.91	1.6
51	8148	5.01	1.6
51	8298	5.11	1.6
51	8448	5.21	1.6
51	8598	5.31	1.6
51	8748	5.41	1.6
51	8899	5.51	1.6
51	9262	5.61	1.6
51	9412	5.71	1.6
51	9562	5.81	1.6
51	9712	5.91	1.6
51	9866	6.01	1.6
51	10016	6.11	1.6
51	10166	6.21	1.6
51	10316	6.31	1.6
51	10466	6.41	1.6
51	10616	6.51	1.6
51	11023	6.61	1.6
51	11174	6.71	1.6
51	11324	6.81	1.6
51	11474	6.91	1.6
51	11628	7.01	1.6
51	11778	7.11	1.6
51	11928	7.21	1.6
51	12078	7.31	1.6
51	12228	7.41	1.6
51	12378	7.51	1.6
51	12529	7.61	1.6
51	12892	7.71	1.6
51	13042	7.81	1.6
51	13192	7.91	1.6
51	13346	8.01	1.6
51	13496	8.11	1.6
51	13646	8.21	1.6
51	13796	8.31	1.6
51	13946	8.41	1.6
51	14096	8.51	1.6
51	14246	8.61	1.6
51	14609	8.71	1.6
51	14760	8.81	1.6
51	14910	8.91	1.6
51	15064	9.01	1.6
51	15214	9.11	1.6
51	15364	9.21	1.6
51	15514	9.31	1.6
51	15664	9.41	1.6
51	15814	9.51	1.6
51	15964	9.61	1.6
51	16115	9.71	1.6
51	16522	9.81	1.6
51	16672	9.91	1.6
51	16826	10.01	1.6
51	16976	10.11	1.6
51	17126	10.21	1.6
51	17276	10.31	1.6
51	17426	10.41	1.6
51	17576	10.51	1.6
51	17726	10.61	1.6
51	17876	10.71	1.6
51	18239	10.81	1.6
51	18390	10.91	1.6
51	18544	11.01	1.6
51	18694	11.11	1.6
51	18844	11.21	1.6
51	18994	11.31	1.6
51	19144	11.41	1.6
51	19294	11.51	1.6
51	19444	11.61	1.6
51	19594	11.71	1.6
51	19745	11.81	1.6
51	20108	11.91	1.6
51	20262	12.01	1.6
51	20412	12.11	1.6
51	20562	12.21	1.6
51	20712	12.31	1.6
51	20862	12.41	1.6
51	21012	12.51	1.6
51	21162	12.61	1.6
51	21312	12.71	1.6
51	21462	12.81	1.6
51	21869	12.91	1.6
51	22024	13.01	1.6
51	22174	13.11	1.6
51	22324	13.21	1.6
51	22474	13.31	1.6
51	22624	13.41	1.6
51	22774	13.51	1.6
51	22924	13.61	1.6
51	23074	13.71	1.6
51	23224	13.81	1.6
51	23375	13.91	1.6
51	23742	14.01	1.6
51	23892	14.11	1.6
51	24042	14.21	1.6
51	24192	14.31	1.6
51	24342	14.41	1.6
51	24492	14.51	1.6
51	24642	14.61	1.6
51	24792	14.71	1.6
51	24942	14.81	1.6
51	25092	14.91	1.6
51	25459	15.01	1.6
51	25610	15.11	1.6
51	25760	15.21	1.6
51	25910	15.31	1.6
51	26060	15.41	1.6
51	26210	15.51	1.6
51	26360	15.61	1.6
51	26510	15.71	1.6
51	26660	15.81	1.6
51	26810	15.91	1.6
51	26964	16.01	1.6
51	27114	16.11	1.6
51	27264	16.21	1.6
51	27414	16.31	1.6
51	27564	16.41	1.6
51	27714	16.51	1.6
51	27864	16.61	1.6
51	28014	16.71	1.6
51	28164	16.81	1.6
51	28314	16.91	1.6
51	28468	17.01	1.6
51	28618	17.11	1.6
51	28768	17.21	1.6
51	28918	17.31	1.6
51	29068	17.41	1.6
51	29218	17.51	1.6
51	29368	17.61	1.6
51	29518	17.71	1.6
51	29668	17.81	1.6
51	29818	17.91	1.6
51	29972	18.01	1.6
51	30122	18.11	1.6
51	30272	18.21	1.6
51	30422	18.31	1.6
51	30572	18.41	1.6
51	30722	18.51	1.6
51	30872	18.61	1.6
51	31022	18.71	1.6
51	31172	18.81	1.6
51	31322	18.91	1.6
51	31476	19.01	1.6
51	31626	19.11	1.6
51	31776	19.21	1.6
51	31926	19.31	1.6
51	32076	19.41	1.6
51	32226	19.51	1.6
51	32376	19.61	1.6
51	32526	19.71	1.6
51	32676	19.81	1.6
51	32826	19.91	1.6
51	32980	20.01	1.6
51	33130	20.11	1.6
51	33280	20.21	1.6
51	33430	20.31	1.6
51	33580	20.41	1.6
51	33730	20.51	1.6
51	33880	20.61	1.6
51	34030	20.71	1.6
51	34180	20.81	1.6
51	34330	20.91	1.6
51	34484	21.01	1.6
51	34634	21.11	1.6
51	34784	21.21	1.6
51	34934	21.31	1.6
51	35084	21.41	1.6
51	35234	21.51	1.6
51	35384	21.61	1.6
51	35534	21.71	1.6
51	35684	21.81	1.6
51	35834	21.91	1.6
51	35988	22.01	1.6
51	36138	22.11	1.6
51	36288	22.21	1.6
51	36438	22.31	1.6
51	36588	22.41	1.6
51	36738	22.51	1.6
51	36888	22.61	1.6
51	37038	22.71	1.6
51	37188	22.81	1.6
51	37338	22.91	1.6
51	37492	23.01	1.6
51	37642	23.11	1.6
51	37792	23.21	1.6
51	37942	23.31	1.6
51	38092	23.41	1.6
51	38242	23.51	1.6
51	38392	23.61	1.6
51	38542	23.71	1.6
51	38692	23.81	1.6
51	38842	23.91	1.6
51	38996	24.01	1.6
51	39146	24.11	1.6
51	39296	24.21	1.6
51	39446	24.31	1.6
51	39596	24.41	1.6
51	39746	24.51	1.6
51	39896	24.61	1.6
51	40046	24.71	1.6
51	40196	24.81	1.6
51	40346	24.91	1.6
51	40500	25.01	1.6
51	40650	25.11	1.6
51	40800	25.21	1.6
51	40950	25.31	1.6
51	41100	25.41	1.6
51	41250	25.51	1.6
51	41400	25.61	1.6
51	41550	25.71	1.6
51	41700	25.81	1.6
51	41850	25.91	1.6
51	42004	26.01	1.6
51	42154	26.11	1.6
51	42304	26.21	1.6
51	42454	26.31	1.6
51	42604	26.41	1.6
51	42754	26.51	1.6
51	42904	26.61	1.6
51	43055	26.71	1.6
51	43205	26.81	1.6
51	43355	26.91	1.6
51	43509	27.01	1.6
51	43659	27.11	1.6
51	43809	27.21	1.6
51	43959	27.31	1.6
51	44109	27.41	1.6
51	44259	27.51	1.6
51	44409	27.61	1.6
51	44559	27.71	1.6
51	44709	27.81	1.6
51	44859	27.91	1.6
51	45013	28.01	1.6
51	45163	28.11	1.6
51	45313	28.21	1.6
51	45463	28.31	1.6
51	45613	28.41	1.6
51	45763	28.51	1.6
51	45913	28.61	1.6
51	46063	28.71	1.6
51	46213	28.81	1.6
51	46363	28.91	1.6
51	46517	29.01	1.6
51	46667	29.11	1.6
51	46817	29.21	1.6
51	46967	29.31	1.6
51	47117	29.41	1.6
51	47267	29.51	1.6
51	47417	29.61	1.6
51	47567	29.71	1.6
51	47717	29.81	1.6
51	47867	29.91	1.6
51	48021	30.01	1.6
51	48171	30.11	1.6
51	48321	30.21	1.6
51	48471	30.31	1.6
51	48621	30.41	1.6
51	48771	30.51	1.6
51	48921	30.61	1.6
51	49071	30.71	1.6
51	49221	30.81	1.6
51	49371	30.91	1.6
51	49525	31.01	1.6
51	49675	31.11	1.6
51	49825	31.21	1.6
51	49975	31.31	1.6
51	50125	31.41	1.6
51	50275	31.51	1.6
51	50425	31.61	1.6
51	50575	31.71	1.6
51	50725	31.81	1.6
51	50875	31.91	1.6
51	51029	32.01	1.6
51	51179	32.11	1.6
51	51329	32.21	1.6
51	51479	32.31	1.6
51	51629	32.41	1.6
51	51779	32.51	1.6
51	51929	32.61	1.6
51	52079	32.71	1.6
51	52229	32.81	1.6
51	52379	32.91	1.6
51	52533	33.01	1.6
51	52683	33.11	1.6
51	52833	33.21	1.6
51	52983	33.31	1.6
51	53133	33.41	1.6
51	53283	33.51	1.6
51	53433	33.61	1.6
51	53583	33.71	1.6
51	53733	33.81	1.6
51	53883	33.91	1.6
51	54037	34.01	1.6
51	54187	34.11	1.6
51	54337	34.21	1.6
51	54487	34.31	1.6
50	26	0.21	492.7
50	176	0.31	491.256
50	326	0.41	489.812
50	476	0.51	488.368
50	626	0.61	486.924
50	776	0.71	485.48
50	926	0.81	484.036
50	1076	0.91	482.592
50	1230	1.01	481.148
50	1381	1.11	479.704
50	1532	1.21	478.259
50	1683	1.31	476.815
50	2046	1.41	475.371
50	2196	1.51	473.926
50	2346	1.61	472.482
50	2496	1.71	471.038
50	2646	1.81	469.593
50	2796	1.91	468.149
50	2950	2.01	466.705
50	3100	2.11	465.26
50	3250	2.21	463.816
50	3400	2.31	462.371
50	3763	2.41	460.927
50	3914	2.51	459.483
50	4064	2.61	458.038
50	4214	2.71	456.594
50	4364	2.81	455.149
50	4514	2.91	453.705
50	4668	3.01	452.26
50	4818	3.11	450.816
50	4968	3.21	449.371
50	5118	3.31	447.927
50	5269	3.41	446.482
50	5676	3.51	445.038
50	5826	3.61	443.594
50	5976	3.71	442.149
50	6126	3.81	440.705
50	6276	3.91	439.26
50	6430	4.01	437.816
50	6580	4.11	436.371
50	6730	4.21	434.927
50	6880	4.31	433.482
50	7030	4.41	432.038
50	7393	4.51	430.593
50	7544	4.61	429.149
50	7694	4.71	427.705
50	7844	4.81	426.26
50	7994	4.91	424.816
50	8148	5.01	423.371
50	8298	5.11	421.927
50	8448	5.21	420.482
50	8598	5.31	419.038
50	8748	5.41	417.593
50	8899	5.51	416.149
50	9262	5.61	414.705
50	9412	5.71	413.26
50	9562	5.81	411.816
50	9712	5.91	410.371
50	9866	6.01	408.927
50	10016	6.11	407.482
50	10166	6.21	406.038
50	10316	6.31	404.594
50	10466	6.41	403.149
50	10616	6.51	401.705
50	11023	6.61	400.26
50	11174	6.71	398.816
50	11324	6.81	397.371
50	11474	6.91	395.927
50	11628	7.01	394.482
50	11778	7.11	393.038
50	11928	7.21	391.594
50	12078	7.31	390.149
50	12228	7.41	388.705
50	12378	7.51	387.26
50	12529	7.61	385.816
50	12892	7.71	384.371
50	13042	7.81	382.927
50	13192	7.91	381.483
50	13346	8.01	380.038
50	13496	8.11	378.594
50	13646	8.21	377.149
50	13796	8.31	375.705
50	13946	8.41	374.26
50	14096	8.51	372.816
50	14246	8.61	371.371
50	14609	8.71	369.927
50	14760	8.81	368.483
50	14910	8.91	367.038
50	15064	9.01	365.594
50	15214	9.11	364.149
50	15364	9.21	362.705
50	15514	9.31	361.26
50	15664	9.41	359.816
50	15814	9.51	358.371
50	15964	9.61	356.927
50	16115	9.71	355.483
50	16522	9.81	354.038
50	16672	9.91	352.594
50	16826	10.01	351.149
50	16976	10.11	349.705
50	17126	10.21	348.26
50	17276	10.31	346.816
50	17426	10.41	345.372
50	17576	10.51	343.927
50	17726	10.61	342.483
50	17876	10.71	341.038
50	18239	10.81	339.594
50	18390	10.91	338.149
50	18544	11.01	336.705
50	18694	11.11	335.26
50	18844	11.21	333.816
50	18994	11.31	332.372
50	19144	11.41	330.927
50	19294	11.51	329.483
50	19444	11.61	328.038
50	19594	11.71	326.594
50	19745	11.81	325.149
50	20108	11.91	323.705
50	20262	12.01	322.26
50	20412	12.11	320.816
50	20562	12.21	319.372
50	20712	12.31	317.927
50	20862	12.41	316.483
50	21012	12.51	315.038
50	21162	12.61	313.594
50	21312	12.71	312.149
50	21462	12.81	310.705
50	21869	12.91	309.261
50	22024	13.01	307.816
50	22174	13.11	306.372
50	22324	13.21	304.927
50	22474	13.31	303.483
50	22624	13.41	302.038
50	22774	13.51	300.594
50	22924	13.61	299.149
50	23074	13.71	297.705
50	23224	13.81	296.261
50	23375	13.91	294.816
50	23742	14.01	293.372
50	23892	14.11	291.927
50	24042	14.21	290.483
50	24192	14.31	289.038
50	24342	14.41	287.594
50	24492	14.51	286.149
50	24642	14.61	284.705
50	24792	14.71	283.261
50	24942	14.81	281.816
50	25092	14.91	280.372
50	25459	15.01	278.927
50	25610	15.11	277.483
50	25760	15.21	276.038
50	25910	15.31	274.594
50	26060	15.41	273.15
50	26210	15.51	271.705
50	26360	15.61	270.261
50	26510	15.71	268.816
50	26660	15.81	267.372
50	26810	15.91	265.927
50	26964	16.01	264.483
50	27114	16.11	263.038
50	27264	16.21	261.594
50	27414	16.31	260.15
50	27564	16.41	258.705
50	27714	16.51	257.261
50	27864	16.61	255.816
50	28014	16.71	254.372
50	28164	16.81	252.927
50	28314	16.91	251.483
50	28468	17.01	250.038
50	28618	17.11	248.594
50	28768	17.21	247.15
50	28918	17.31	245.705
50	29068	17.41	244.261
50	29218	17.51	242.816
50	29368	17.61	241.372
50	29518	17.71	239.927
50	29668	17.81	238.483
50	29818	17.91	237.039
50	29972	18.01	235.594
50	30122	18.11	234.15
50	30272	18.21	232.705
50	30422	18.31	231.261
50	30572	18.41	229.816
50	30722	18.51	228.372
50	30872	18.61	226.927
50	31022	18.71	225.483
50	31172	18.81	224.039
50	31322	18.91	222.594
50	31476	19.01	221.15
50	31626	19.11	219.705
50	31776	19.21	218.261
50	31926	19.31	216.816
50	32076	19.41	215.372
50	32226	19.51	213.927
50	32376	19.61	212.483
50	32526	19.71	211.039
50	32676	19.81	209.594
50	32826	19.91	208.15
50	32980	20.01	206.705
50	33130	20.11	205.261
50	33280	20.21	203.816
50	33430	20.31	202.372
50	33580	20.41	200.928
50	33730	20.51	199.483
50	33880	20.61	198.039
50	34030	20.71	196.594
50	34180	20.81	195.15
50	34330	20.91	193.705
50	34484	21.01	192.261
50	34634	21.11	190.816
50	34784	21.21	189.372
50	34934	21.31	187.928
50	35084	21.41	186.483
50	35234	21.51	185.039
50	35384	21.61	183.594
50	35534	21.71	182.15
50	35684	21.81	180.705
50	35834	21.91	179.261
50	35988	22.01	177.816
50	36138	22.11	176.372
50	36288	22.21	174.928
50	36438	22.31	173.483
50	36588	22.41	172.039
50	36738	22.51	170.594
50	36888	22.61	169.15
50	37038	22.71	167.705
50	37188	22.81	166.261
50	37338	22.91	164.817
50	37492	23.01	163.372
50	37642	23.11	161.928
50	37792	23.21	160.483
50	37942	23.31	159.039
50	38092	23.41	157.594
50	38242	23.51	156.15
50	38392	23.61	154.705
50	38542	23.71	153.261
50	38692	23.81	151.817
50	38842	23.91	150.372
50	38996	24.01	148.928
50	39146	24.11	147.483
50	39296	24.21	146.039
50	39446	24.31	144.594
50	39596	24.41	143.15
50	39746	24.51	141.705
50	39896	24.61	140.261
50	40046	24.71	138.817
50	40196	24.81	137.372
50	40346	24.91	135.928
50	40500	25.01	134.483
50	40650	25.11	133.039
50	40800	25.21	131.594
50	40950	25.31	130.15
50	41100	25.41	128.706
50	41250	25.51	127.261
50	41400	25.61	125.817
50	41550	25.71	124.372
50	41700	25.81	122.928
50	41850	25.91	121.483
50	42004	26.01	120.039
50	42154	26.11	118.594
50	42304	26.21	117.15
50	42454	26.31	115.706
50	42604	26.41	114.261
50	42754	26.51	112.817
50	42904	26.61	111.372
50	43055	26.71	109.928
50	43205	26.81	108.483
50	43355	26.91	107.039
50	43509	27.01	105.594
50	43659	27.11	104.15
50	43809	27.21	102.706
50	43959	27.31	101.261
50	44109	27.41	99.8167
50	44259	27.51	98.3723
50	44409	27.61	96.9278
50	44559	27.71	95.4834
50	44709	27.81	94.0389
50	44859	27.91	92.5945
50	45013	28.01	91.1501
50	45163	28.11	89.7056
50	45313	28.21	88.2612
50	45463	28.31	86.8167
50	45613	28.41	85.3723
50	45763	28.51	83.9279
50	45913	28.61	82.4834
50	46063	28.71	81.039
50	46213	28.81	79.5945
50	46363	28.91	78.1501
50	46517	29.01	76.7057
50	46667	29.11	75.2612
50	46817	29.21	73.8168
50	46967	29.31	72.3723
50	47117	29.41	70.9279
50	47267	29.51	69.4835
50	47417	29.61	68.039
50	47567	29.71	66.5946
50	47717	29.81	65.1501
50	47867	29.91	63.7057
50	48021	30.01	62.2613
50	48171	30.11	60.8168
50	48321	30.21	59.3724
50	48471	30.31	57.9279
50	48621	30.41	56.4835
50	48771	30.51	55.0391
50	48921	30.61	53.5946
50	49071	30.71	52.1502
50	49221	30.81	50.7057
50	49371	30.91	49.2613
50	49525	31.01	47.8169
50	49675	31.11	46.3724
50	49825	31.21	44.928
50	49975	31.31	43.4835
50	50125	31.41	42.0391
50	50275	31.51	40.5947
50	50425	31.61	39.1502
50	50575	31.71	37.7058
50	50725	31.81	36.2613
50	50875	31.91	34.8169
50	51029	32.01	33.3725
50	51179	32.11	31.928
50	51329	32.21	30.4836
50	51479	32.31	29.0391
50	51629	32.41	27.5947
50	51779	32.51	26.1503
50	51929	32.61	24.7058
50	52079	32.71	23.2614
50	52229	32.81	21.8169
50	52379	32.91	20.3725
50	52533	33.01	18.9281
50	52683	33.11	17.4836
50	52833	33.21	16.0392
50	52983	33.31	14.5947
50	53133	33.41	13.1503
50	53283	33.51	11.7059
50	53433	33.61	10.2614
50	53583	33.71	8.81698
50	53733	33.81	7.37254
50	53883	33.91	5.9281
50	54037	34.01	4.48366
50	54187	34.11	3.03922
50	54337	34.21	1.59478
50	54487	34.31	0.150342
49	26	0.21	14.44
49	176	0.31	14.4401
49	326	0.41	14.4403
49	476	0.51	14.4405
49	626	0.61	14.4408
49	776	0.71	14.441
49	926	0.81	14.4413
49	1076	0.91	14.4416
49	1230	1.01	14.4419
49	1381	1.11	14.4421
49	1532	1.21	14.4424
49	1683	1.31	14.4427
49	2046	1.41	14.4429
49	2196	1.51	14.4431
49	2346	1.61	14.4433
49	2496	1.71	14.4435
49	2646	1.81	14.4437
49	2796	1.91	14.4438
49	2950	2.01	14.444
49	3100	2.11	14.4441
49	3250	2.21	14.4442
49	3400	2.31	14.4443
49	3763	2.41	14.4444
49	3914	2.51	14.4444
49	4064	2.61	14.4445
49	4214	2.71	14.4445
49	4364	2.81	14.4445
49	4514	2.91	14.4446
49	4668	3.01	14.4446
49	4818	3.11	14.4446
49	4968	3.21	14.4446
49	5118	3.31	14.4446
49	5269	3.41	14.4446
49	5676	3.51	14.4446
49	5826	3.61	14.4446
49	5976	3.71	14.4446
49	6126	3.81	14.4446
49	6276	3.91	14.4445
49	6430	4.01	14.4445
49	6580	4.11	14.4445
49	6730	4.21	14.4445
49	6880	4.31	14.4445
49	7030	4.41	14.4445
49	7393	4.51	14.4445
49	7544	4.61	14.4445
49	7694	4.71	14.4445
49	7844	4.81	14.4444
49	7994	4.91	14.4444
49	8148	5.01	14.4444
49	8298	5.11	14.4444
49	8448	5.21	14.4444
49	8598	5.31	14.4444
49	8748	5.41	14.4444
49	8899	5.51	14.4444
49	9262	5.61	14.4444
49	9412	5.71	14.4444
49	9562	5.81	14.4444
49	9712	5.91	14.4444
49	9866	6.01	14.4444
49	10016	6.11	14.4444
49	10166	6.21	14.4444
49	10316	6.31	14.4444
49	10466	6.41	14.4444
49	10616	6.51	14.4444
49	11023	6.61	14.4444
49	11174	6.71	14.4444
49	11324	6.81	14.4444
49	11474	6.91	14.4444
49	11628	7.01	14.4444
49	11778	7.11	14.4444
49	11928	7.21	14.4444
49	12078	7.31	14.4444
49	12228	7.41	14.4444
49	12378	7.51	14.4444
49	12529	7.61	14.4444
49	12892	7.71	14.4444
49	13042	7.81	14.4444
49	13192	7.91	14.4444
49	13346	8.01	14.4444
49	13496	8.11	14.4444
49	13646	8.21	14.4444
49	13796	8.31	14.4444
49	13946	8.41	14.4444
49	14096	8.51	14.4444
49	14246	8.61	14.4444
49	14609	8.71	14.4444
49	14760	8.81	14.4444
49	14910	8.91	14.4444
49	15064	9.01	14.4444
49	15214	9.11	14.4444
49	15364	9.21	14.4444
49	15514	9.31	14.4444
49	15664	9.41	14.4444
49	15814	9.51	14.4444
49	15964	9.61	14.4444
49	16115	9.71	14.4444
49	16522	9.81	14.4444
49	16672	9.91	14.4444
49	16826	10.01	14.4444
49	16976	10.11	14.4444
49	17126	10.21	14.4444
49	17276	10.31	14.4444
49	17426	10.41	14.4444
49	17576	10.51	14.4444
49	17726	10.61	14.4444
49	17876	10.71	14.4444
49	18239	10.81	14.4444
49	18390	10.91	14.4444
49	18544	11.01	14.4444
49	18694	11.11	14.4444
49	18844	11.21	14.4444
49	18994	11.31	14.4444
49	19144	11.41	14.4444
49	19294	11.51	14.4444
49	19444	11.61	14.4444
49	19594	11.71	14.4444
49	19745	11.81	14.4444
49	20108	11.91	14.4444
49	20262	12.01	14.4444
49	20412	12.11	14.4444
49	20562	12.21	14.4444
49	20712	12.31	14.4444
49	20862	12.41	14.4444
49	21012	12.51	14.4444
49	21162	12.61	14.4444
49	21312	12.71	14.4444
49	21462	12.81	14.4444
49	21869	12.91	14.4444
49	22024	13.01	14.4444
49	22174	13.11	14.4444
49	22324	13.21	14.4444
49	22474	13.31	14.4444
49	22624	13.41	14.4444
49	22774	13.51	14.4444
49	22924	13.61	14.4444
49	23074	13.71	14.4444
49	23224	13.81	14.4444
49	23375	13.91	14.4444
49	23742	14.01	14.4444
49	23892	14.11	14.4444
49	24042	14.21	14.4444
49	24192	14.31	14.4444
49	24342	14.41	14.4444
49	24492	14.51	14.4444
49	24642	14.61	14.4444
49	24792	14.71	14.4444
49	24942	14.81	14.4444
49	25092	14.91	14.4444
49	25459	15.01	14.4444
49	25610	15.11	14.4444
49	25760	15.21	14.4444
49	25910	15.31	14.4444
49	26060	15.41	14.4444
49	26210	15.51	14.4444
49	26360	15.61	14.4444
49	26510	15.71	14.4444
49	26660	15.81	14.4444
49	26810	15.91	14.4444
49	26964	16.01	14.4444
49	27114	16.11	14.4444
49	27264	16.21	14.4444
49	27414	16.31	14.4444
49	27564	16.41	14.4444
49	27714	16.51	14.4444
49	27864	16.61	14.4444
49	28014	16.71	14.4444
49	28164	16.81	14.4444
49	28314	16.91	14.4444
49	28468	17.01	14.4444
49	28618	17.11	14.4444
49	28768	17.21	14.4444
49	28918	17.31	14.4444
49	29068	17.41	14.4444
49	29218	17.51	14.4444
49	29368	17.61	14.4444
49	29518	17.71	14.4444
49	29668	17.81	14.4444
49	29818	17.91	14.4444
49	29972	18.01	14.4444
49	30122	18.11	14.4444
49	30272	18.21	14.4444
49	30422	18.31	14.4444
49	30572	18.41	14.4444
49	30722	18.51	14.4444
49	30872	18.61	14.4444
49	31022	18.71	14.4444
49	31172	18.81	14.4444
49	31322	18.91	14.4444
49	31476	19.01	14.4444
49	31626	19.11	14.4444
49	31776	19.21	14.4444
49	31926	19.31	14.4444
49	32076	19.41	14.4444
49	32226	19.51	14.4444
49	32376	19.61	14.4444
49	32526	19.71	14.4444
49	32676	19.81	14.4444
49	32826	19.91	14.4444
49	32980	20.01	14.4444
49	33130	20.11	14.4444
49	33280	20.21	14.4444
49	33430	20.31	14.4444
49	33580	20.41	14.4444
49	33730	20.51	14.4444
49	33880	20.61	14.4444
49	34030	20.71	14.4444
49	34180	20.81	14.4444
49	34330	20.91	14.4444
49	34484	21.01	14.4444
49	34634	21.11	14.4444
49	34784	21.21	14.4444
49	34934	21.31	14.4444
49	35084	21.41	14.4444
49	35234	21.51	14.4444
49	35384	21.61	14.4444
49	35534	21.71	14.4444
49	35684	21.81	14.4444
49	35834	21.91	14.4444
49	35988	22.01	14.4444
49	36138	22.11	14.4444
49	36288	22.21	14.4444
49	36438	22.31	14.4444
49	36588	22.41	14.4444
49	36738	22.51	14.4444
49	36888	22.61	14.4444
49	37038	22.71	14.4444
49	37188	22.81	14.4444
49	37338	22.91	14.4444
49	37492	23.01	14.4444
49	37642	23.11	14.4444
49	37792	23.21	14.4444
49	37942	23.31	14.4444
49	38092	23.41	14.4444
49	38242	23.51	14.4444
49	38392	23.61	14.4444
49	38542	23.71	14.4444
49	38692	23.81	14.4444
49	38842	23.91	14.4444
49	38996	24.01	14.4444
49	39146	24.11	14.4444
49	39296	24.21	14.4444
49	39446	24.31	14.4444
49	39596	24.41	14.4444
49	39746	24.51	14.4444
49	39896	24.61	14.4444
49	40046	24.71	14.4444
49	40196	24.81	14.4444
49	40346	24.91	14.4444
49	40500	25.01	14.4444
49	40650	25.11	14.4444
49	40800	25.21	14.4444
49	40950	25.31	14.4444
49	41100	25.41	14.4444
49	41250	25.51	14.4444
49	41400	25.61	14.4444
49	41550	25.71	14.4444
49	41700	25.81	14.4444
49	41850	25.91	14.4444
49	42004	26.01	14.4444
49	42154	26.11	14.4444
49	42304	26.21	14.4444
49	42454	26.31	14.4444
49	42604	26.41	14.4444
49	42754	26.51	14.4444
49	42904	26.61	14.4444
49	43055	26.71	14.4444
49	43205	26.81	14.4444
49	43355	26.91	14.4444
49	43509	27.01	14.4444
49	43659	27.11	14.4444
49	43809	27.21	14.4444
49	43959	27.31	14.4444
49	44109	27.41	14.4444
49	44259	27.51	14.4444
49	44409	27.61	14.4444
49	44559	27.71	14.4444
49	44709	27.81	14.4444
49	44859	27.91	14.4444
49	45013	28.01	14.4444
49	45163	28.11	14.4444
49	45313	28.21	14.4444
49	45463	28.31	14.4444
49	45613	28.41	14.4444
49	45763	28.51	14.4444
49	45913	28.61	14.4444
49	46063	28.71	14.4444
49	46213	28.81	14.4444
49	46363	28.91	14.4444
49	46517	29.01	14.4444
49	46667	29.11	14.4444
49	46817	29.21	14.4444
49	46967	29.31	14.4444
49	47117	29.41	14.4444
49	47267	29.51	14.4444
49	47417	29.61	14.4444
49	47567	29.71	14.4444
49	47717	29.81	14.4444
49	47867	29.91	14.4444
49	48021	30.01	14.4444
49	48171	30.11	14.4444
49	48321	30.21	14.4444
49	48471	30.31	14.4444
49	48621	30.41	14.4444
49	48771	30.51	14.4444
49	48921	30.61	14.4444
49	49071	30.71	14.4444
49	49221	30.81	14.4444
49	49371	30.91	14.4444
49	49525	31.01	14.4444
49	49675	31.11	14.4444
49	49825	31.21	14.4444
49	49975	31.31	14.4444
49	50125	31.41	14.4444
49	50275	31.51	14.4444
49	50425	31.61	14.4444
49	50575	31.71	14.4444
49	50725	31.81	14.4444
49	50875	31.91	14.4444
49	51029	32.01	14.4444
49	51179	32.11	14.4444
49	51329	32.21	14.4444
49	51479	32.31	14.4444
49	51629	32.41	14.4444
49	51779	32.51	14.4444
49	51929	32.61	14.4444
49	52079	32.71	14.4444
49	52229	32.81	14.4444
49	52379	32.91	14.4444
49	52533	33.01	14.4444
49	52683	33.11	14.4444
49	52833	33.21	14.4444
49	52983	33.31	14.4444
49	53133	33.41	14.4444
49	53283	33.51	14.4444
49	53433	33.61	14.4444
49	53583	33.71	14.4444
49	53733	33.81	14.4444
49	53883	33.91	14.4444
49	54037	34.01	14.4444
49	54187	34.11	14.4444
49	54337	34.21	14.4444
49	54487	34.31	14.4444
45	26	0.21	0
45	176	0.31	0
45	326	0.41	0
45	476	0.51	0
45	626	0.61	0
45	776	0.71	0
45	926	0.81	0
45	1076	0.91	0
45	1230	1.01	0
45	1381	1.11	0
45	1532	1.21	0
45	1683	1.31	0
45	2046	1.41	0
45	2196	1.51	0
45	2346	1.61	0
45	2496	1.71	0
45	2646	1.81	0
45	2796	1.91	0
45	2950	2.01	0
45	3100	2.11	0
45	3250	2.21	0
45	3400	2.31	0
45	3763	2.41	0
45	3914	2.51	0
45	4064	2.61	0
45	4214	2.71	0
45	4364	2.81	0
45	4514	2.91	0
45	4668	3.01	0
45	4818	3.11	0
45	4968	3.21	0
45	5118	3.31	0
45	5269	3.41	0
45	5676	3.51	0
45	5826	3.61	0
45	5976	3.71	0
45	6126	3.81	0
45	6276	3.91	0
45	6430	4.01	0
45	6580	4.11	0
45	6730	4.21	0
45	6880	4.31	0
45	7030	4.41	0
45	7393	4.51	0
45	7544	4.61	0
45	7694	4.71	0
45	7844	4.81	0
45	7994	4.91	0
45	8148	5.01	0
45	8298	5.11	0
45	8448	5.21	0
45	8598	5.31	0
45	8748	5.41	0
45	8899	5.51	0
45	9262	5.61	0
45	9412	5.71	0
45	9562	5.81	0
45	9712	5.91	0
45	9866	6.01	0
45	10016	6.11	0
45	10166	6.21	0
45	10316	6.31	0
45	10466	6.41	0
45	10616	6.51	0
45	11023	6.61	0
45	11174	6.71	0
45	11324	6.81	0
45	11474	6.91	0
45	11628	7.01	0
45	11778	7.11	0
45	11928	7.21	0
45	12078	7.31	0
45	12228	7.41	0
45	12378	7.51	0
45	12529	7.61	0
45	12892	7.71	0
45	13042	7.81	0
45	13192	7.91	0
45	13346	8.01	0
45	13496	8.11	0
45	13646	8.21	0
45	13796	8.31	0
45	13946	8.41	0
45	14096	8.51	0
45	14246	8.61	0
45	14609	8.71	0
45	14760	8.81	0
45	14910	8.91	0
45	15064	9.01	0
45	15214	9.11	0
45	15364	9.21	0
45	15514	9.31	0
45	15664	9.41	0
45	15814	9.51	0
45	15964	9.61	0
45	16115	9.71	0
45	16522	9.81	0
45	16672	9.91	0
45	16826	10.01	0
45	16976	10.11	0
45	17126	10.21	0
45	17276	10.31	0
45	17426	10.41	0
45	17576	10.51	0
45	17726	10.61	0
45	17876	10.71	0
45	18239	10.81	0
45	18390	10.91	0
45	18544	11.01	0
45	18694	11.11	0
45	18844	11.21	0
45	18994	11.31	0
45	19144	11.41	0
45	19294	11.51	0
45	19444	11.61	0
45	19594	11.71	0
45	19745	11.81	0
45	20108	11.91	0
45	20262	12.01	0
45	20412	12.11	0
45	20562	12.21	0
45	20712	12.31	0
45	20862	12.41	0
45	21012	12.51	0
45	21162	12.61	0
45	21312	12.71	0
45	21462	12.81	0
45	21869	12.91	0
45	22024	13.01	0
45	22174	13.11	0
45	22324	13.21	0
45	22474	13.31	0
45	22624	13.41	0
45	22774	13.51	0
45	22924	13.61	0
45	23074	13.71	0
45	23224	13.81	0
45	23375	13.91	0
45	23742	14.01	0
45	23892	14.11	0
45	24042	14.21	0
45	24192	14.31	0
45	24342	14.41	0
45	24492	14.51	0
45	24642	14.61	0
45	24792	14.71	0
45	24942	14.81	0
45	25092	14.91	0
45	25459	15.01	0
45	25610	15.11	0
45	25760	15.21	0
45	25910	15.31	0
45	26060	15.41	0
45	26210	15.51	0
45	26360	15.61	0
45	26510	15.71	0
45	26660	15.81	0
45	26810	15.91	0
45	26964	16.01	0
45	27114	16.11	0
45	27264	16.21	0
45	27414	16.31	0
45	27564	16.41	0
45	27714	16.51	0
45	27864	16.61	0
45	28014	16.71	0
45	28164	16.81	0
45	28314	16.91	0
45	28468	17.01	0
45	28618	17.11	0
45	28768	17.21	0
45	28918	17.31	0
45	29068	17.41	0
45	29218	17.51	0
45	29368	17.61	0
45	29518	17.71	0
45	29668	17.81	0
45	29818	17.91	0
45	29972	18.01	0
45	30122	18.11	0
45	30272	18.21	0
45	30422	18.31	0
45	30572	18.41	0
45	30722	18.51	0
45	30872	18.61	0
45	31022	18.71	0
45	31172	18.81	0
45	31322	18.91	0
45	31476	19.01	0
45	31626	19.11	0
45	31776	19.21	0
45	31926	19.31	0
45	32076	19.41	0
45	32226	19.51	0
45	32376	19.61	0
45	32526	19.71	0
45	32676	19.81	0
45	32826	19.91	0
45	32980	20.01	0
45	33130	20.11	0
45	33280	20.21	0
45	33430	20.31	0
45	33580	20.41	0
45	33730	20.51	0
45	33880	20.61	0
45	34030	20.71	0
45	34180	20.81	0
45	34330	20.91	0
45	34484	21.01	0
45	34634	21.11	0
45	34784	21.21	0
45	34934	21.31	0
45	35084	21.41	0
45	35234	21.51	0
45	35384	21.61	0
45	35534	21.71	0
45	35684	21.81	0
45	35834	21.91	0
45	35988	22.01	0
45	36138	22.11	0
45	36288	22.21	0
45	36438	22.31	0
45	36588	22.41	0
45	36738	22.51	0
45	36888	22.61	0
45	37038	22.71	0
45	37188	22.81	0
45	37338	22.91	0
45	37492	23.01	0
45	37642	23.11	0
45	37792	23.21	0
45	37942	23.31	0
45	38092	23.41	0
45	38242	23.51	0
45	38392	23.61	0
45	38542	23.71	0
45	38692	23.81	0
45	38842	23.91	0
45	38996	24.01	0
45	39146	24.11	0
45	39296	24.21	0
45	39446	24.31	0
45	39596	24.41	0
45	39746	24.51	0
45	39896	24.61	0
45	40046	24.71	0
45	40196	24.81	0
45	40346	24.91	0
45	40500	25.01	0
45	40650	25.11	0
45	40800	25.21	0
45	40950	25.31	0
45	41100	25.41	0
45	41250	25.51	0
45	41400	25.61	0
45	41550	25.71	0
45	41700	25.81	0
45	41850	25.91	0
45	42004	26.01	0
45	42154	26.11	0
45	42304	26.21	0
45	42454	26.31	0
45	42604	26.41	0
45	42754	26.51	0
45	42904	26.61	0
45	43055	26.71	0
45	43205	26.81	0
45	43355	26.91	0
45	43509	27.01	0
45	43659	27.11	0
45	43809	27.21	0
45	43959	27.31	0
45	44109	27.41	0
45	44259	27.51	0
45	44409	27.61	0
45	44559	27.71	0
45	44709	27.81	0
45	44859	27.91	0
45	45013	28.01	0
45	45163	28.11	0
45	45313	28.21	0
45	45463	28.31	0
45	45613	28.41	0
45	45763	28.51	0
45	45913	28.61	0
45	46063	28.71	0
45	46213	28.81	0
45	46363	28.91	0
45	46517	29.01	0
45	46667	29.11	0
45	46817	29.21	0
45	46967	29.31	0
45	47117	29.41	0
45	47267	29.51	0
45	47417	29.61	0
45	47567	29.71	0
45	47717	29.81	0
45	47867	29.91	0
45	48021	30.01	0
45	48171	30.11	0
45	48321	30.21	0
45	48471	30.31	0
45	48621	30.41	0
45	48771	30.51	0
45	48921	30.61	0
45	49071	30.71	0
45	49221	30.81	0
45	49371	30.91	0
45	49525	31.01	0
45	49675	31.11	0
45	49825	31.21	0
45	49975	31.31	0
45	50125	31.41	0
45	50275	31.51	0
45	50425	31.61	0
45	50575	31.71	0
45	50725	31.81	0
45	50875	31.91	0
45	51029	32.01	0
45	51179	32.11	0
45	51329	32.21	0
45	51479	32.31	0
45	51629	32.41	0
45	51779	32.51	0
45	51929	32.61	0
45	52079	32.71	0
45	52229	32.81	0
45	52379	32.91	0
45	52533	33.01	0
45	52683	33.11	0
45	52833	33.21	0
45	52983	33.31	0
45	53133	33.41	0
45	53283	33.51	0
45	53433	33.61	0
45	53583	33.71	0
45	53733	33.81	0
45	53883	33.91	0
45	54037	34.01	0
45	54187	34.11	0
45	54337	34.21	0
45	54487	34.31	0
44	26	0.21	-1
44	176	0.31	-1
44	326	0.41	-1
44	476	0.51	-1
44	626	0.61	-1
44	776	0.71	-1
44	926	0.81	-1
44	1076	0.91	-1
44	1230	1.01	-1
44	1381	1.11	-1
44	1532	1.21	-1
44	1683	1.31	-1
44	2046	1.41	-1
44	2196	1.51	-1
44	2346	1.61	-1
44	2496	1.71	-1
44	2646	1.81	-1
44	2796	1.91	-1
44	2950	2.01	-1
44	3100	2.11	-1
44	3250	2.21	-1
44	3400	2.31	-1
44	3763	2.41	-1
44	3914	2.51	-1
44	4064	2.61	-1
44	4214	2.71	-1
44	4364	2.81	-1
44	4514	2.91	-1
44	4668	3.01	-1
44	4818	3.11	-1
44	4968	3.21	-1
44	5118	3.31	-1
44	5269	3.41	-1
44	5676	3.51	-1
44	5826	3.61	-1
44	5976	3.71	-1
44	6126	3.81	-1
44	6276	3.91	-1
44	6430	4.01	-1
44	6580	4.11	-1
44	6730	4.21	-1
44	6880	4.31	-1
44	7030	4.41	-1
44	7393	4.51	-1
44	7544	4.61	-1
44	7694	4.71	-1
44	7844	4.81	-1
44	7994	4.91	-1
44	8148	5.01	-1
44	8298	5.11	-1
44	8448	5.21	-1
44	8598	5.31	-1
44	8748	5.41	-1
44	8899	5.51	-1
44	9262	5.61	-1
44	9412	5.71	-1
44	9562	5.81	-1
44	9712	5.91	-1
44	9866	6.01	-1
44	10016	6.11	-1
44	10166	6.21	-1
44	10316	6.31	-1
44	10466	6.41	-1
44	10616	6.51	-1
44	11023	6.61	-1
44	11174	6.71	-1
44	11324	6.81	-1
44	11474	6.91	-1
44	11628	7.01	-1
44	11778	7.11	-1
44	11928	7.21	-1
44	12078	7.31	-1
44	12228	7.41	-1
44	12378	7.51	-1
44	12529	7.61	-1
44	12892	7.71	-1
44	13042	7.81	-1
44	13192	7.91	-1
44	13346	8.01	-1
44	13496	8.11	-1
44	13646	8.21	-1
44	13796	8.31	-1
44	13946	8.41	-1
44	14096	8.51	-1
44	14246	8.61	-1
44	14609	8.71	-1
44	14760	8.81	-1
44	14910	8.91	-1
44	15064	9.01	-1
44	15214	9.11	-1
44	15364	9.21	-1
44	15514	9.31	-1
44	15664	9.41	-1
44	15814	9.51	-1
44	15964	9.61	-1
44	16115	9.71	-1
44	16522	9.81	-1
44	16672	9.91	-1
44	16826	10.01	-1
44	16976	10.11	-1
44	17126	10.21	-1
44	17276	10.31	-1
44	17426	10.41	-1
44	17576	10.51	-1
44	17726	10.61	-1
44	17876	10.71	-1
44	18239	10.81	-1
44	18390	10.91	-1
44	18544	11.01	-1
44	18694	11.11	-1
44	18844	11.21	-1
44	18994	11.31	-1
44	19144	11.41	-1
44	19294	11.51	-1
44	19444	11.61	-1
44	19594	11.71	-1
44	19745	11.81	-1
44	20108	11.91	-1
44	20262	12.01	-1
44	20412	12.11	-1
44	20562	12.21	-1
44	20712	12.31	-1
44	20862	12.41	-1
44	21012	12.51	-1
44	21162	12.61	-1
44	21312	12.71	-1
44	21462	12.81	-1
44	21869	12.91	-1
44	22024	13.01	-1
44	22174	13.11	-1
44	22324	13.21	-1
44	22474	13.31	-1
44	22624	13.41	-1
44	22774	13.51	-1
44	22924	13.61	-1
44	23074	13.71	-1
44	23224	13.81	-1
44	23375	13.91	-1
44	23742	14.01	-1
44	23892	14.11	-1
44	24042	14.21	-1
44	24192	14.31	-1
44	24342	14.41	-1
44	24492	14.51	-1
44	24642	14.61	-1
44	24792	14.71	-1
44	24942	14.81	-1
44	25092	14.91	-1
44	25459	15.01	-1
44	25610	15.11	-1
44	25760	15.21	-1
44	25910	15.31	-1
44	26060	15.41	-1
44	26210	15.51	-1
44	26360	15.61	-1
44	26510	15.71	-1
44	26660	15.81	-1
44	26810	15.91	-1
44	26964	16.01	-1
44	27114	16.11	-1
44	27264	16.21	-1
44	27414	16.31	-1
44	27564	16.41	-1
44	27714	16.51	-1
44	27864	16.61	-1
44	28014	16.71	-1
44	28164	16.81	-1
44	28314	16.91	-1
44	28468	17.01	-1
44	28618	17.11	-1
44	28768	17.21	-1
44	28918	17.31	-1
44	29068	17.41	-1
44	29218	17.51	-1
44	29368	17.61	-1
44	29518	17.71	-1
44	29668	17.81	-1
44	29818	17.91	-1
44	29972	18.01	-1
44	30122	18.11	-1
44	30272	18.21	-1
44	30422	18.31	-1
44	30572	18.41	-1
44	30722	18.51	-1
44	30872	18.61	-1
44	31022	18.71	-1
44	31172	18.81	-1
44	31322	18.91	-1
44	31476	19.01	-1
44	31626	19.11	-1
44	31776	19.21	-1
44	31926	19.31	-1
44	32076	19.41	-1
44	32226	19.51	-1
44	32376	19.61	-1
44	32526	19.71	-1
44	32676	19.81	-1
44	32826	19.91	-1
44	32980	20.01	-1
44	33130	20.11	-1
44	33280	20.21	-1
44	33430	20.31	-1
44	33580	20.41	-1
44	33730	20.51	-1
44	33880	20.61	-1
44	34030	20.71	-1
44	34180	20.81	-1
44	34330	20.91	-1
44	34484	21.01	-1
44	34634	21.11	-1
44	34784	21.21	-1
44	34934	21.31	-1
44	35084	21.41	-1
44	35234	21.51	-1
44	35384	21.61	-1
44	35534	21.71	-1
44	35684	21.81	-1
44	35834	21.91	-1
44	35988	22.01	-1
44	36138	22.11	-1
44	36288	22.21	-1
44	36438	22.31	-1
44	36588	22.41	-1
44	36738	22.51	-1
44	36888	22.61	-1
44	37038	22.71	-1
44	37188	22.81	-1
44	37338	22.91	-1
44	37492	23.01	-1
44	37642	23.11	-1
44	37792	23.21	-1
44	37942	23.31	-1
44	38092	23.41	-1
44	38242	23.51	-1
44	38392	23.61	-1
44	38542	23.71	-1
44	38692	23.81	-1
44	38842	23.91	-1
44	38996	24.01	-1
44	39146	24.11	-1
44	39296	24.21	-1
44	39446	24.31	-1
44	39596	24.41	-1
44	39746	24.51	-1
44	39896	24.61	-1
44	40046	24.71	-1
44	40196	24.81	-1
44	40346	24.91	-1
44	40500	25.01	-1
44	40650	25.11	-1
44	40800	25.21	-1
44	40950	25.31	-1
44	41100	25.41	-1
44	41250	25.51	-1
44	41400	25.61	-1
44	41550	25.71	-1
44	41700	25.81	-1
44	41850	25.91	-1
44	42004	26.01	-1
44	42154	26.11	-1
44	42304	26.21	-1
44	42454	26.31	-1
44	42604	26.41	-1
44	42754	26.51	-1
44	42904	26.61	-1
44	43055	26.71	-1
44	43205	26.81	-1
44	43355	26.91	-1
44	43509	27.01	-1
44	43659	27.11	-1
44	43809	27.21	-1
44	43959	27.31	-1
44	44109	27.41	-1
44	44259	27.51	-1
44	44409	27.61	-1
44	44559	27.71	-1
44	44709	27.81	-1
44	44859	27.91	-1
44	45013	28.01	-1
44	45163	28.11	-1
44	45313	28.21	-1
44	45463	28.31	-1
44	45613	28.41	-1
44	45763	28.51	-1
44	45913	28.61	-1
44	46063	28.71	-1
44	46213	28.81	-1
44	46363	28.91	-1
44	46517	29.01	-1
44	46667	29.11	-1
44	46817	29.21	-1
44	46967	29.31	-1
44	47117	29.41	-1
44	47267	29.51	-1
44	47417	29.61	-1
44	47567	29.71	-1
44	47717	29.81	-1
44	47867	29.91	-1
44	48021	30.01	-1
44	48171	30.11	-1
44	48321	30.21	-1
44	48471	30.31	-1
44	48621	30.41	-1
44	48771	30.51	-1
44	48921	30.61	-1
44	49071	30.71	-1
44	49221	30.81	-1
44	49371	30.91	-1
44	49525	31.01	-1
44	49675	31.11	-1
44	49825	31.21	-1
44	49975	31.31	-1
44	50125	31.41	-1
44	50275	31.51	-1
44	50425	31.61	-1
44	50575	31.71	-1
44	50725	31.81	-1
44	50875	31.91	-1
44	51029	32.01	-1
44	51179	32.11	-1
44	51329	32.21	-1
44	51479	32.31	-1
44	51629	32.41	-1
44	51779	32.51	-1
44	51929	32.61	-1
44	52079	32.71	-1
44	52229	32.81	-1
44	52379	32.91	-1
44	52533	33.01	-1
44	52683	33.11	-1
44	52833	33.21	-1
44	52983	33.31	-1
44	53133	33.41	-1
44	53283	33.51	-1
44	53433	33.61	-1
44	53583	33.71	-1
44	53733	33.81	-1
44	53883	33.91	-1
44	54037	34.01	-1
44	54187	34.11	-1
44	54337	34.21	-1
44	54487	34.31	-1
46	26	0.21	3
46	176	0.31	3
46	326	0.41	3
46	476	0.51	3
46	626	0.61	3
46	776	0.71	3
46	926	0.81	3
46	1076	0.91	3
46	1230	1.01	3
46	1381	1.11	3
46	1532	1.21	3
46	1683	1.31	3
46	2046	1.41	3
46	2196	1.51	3
46	2346	1.61	3
46	2496	1.71	3
46	2646	1.81	3
46	2796	1.91	3
46	2950	2.01	3
46	3100	2.11	3
46	3250	2.21	3
46	3400	2.31	3
46	3763	2.41	3
46	3914	2.51	3
46	4064	2.61	3
46	4214	2.71	3
46	4364	2.81	3
46	4514	2.91	3
46	4668	3.01	3
46	4818	3.11	3
46	4968	3.21	3
46	5118	3.31	3
46	5269	3.41	3
46	5676	3.51	3
46	5826	3.61	3
46	5976	3.71	3
46	6126	3.81	3
46	6276	3.91	3
46	6430	4.01	3
46	6580	4.11	3
46	6730	4.21	3
46	6880	4.31	3
46	7030	4.41	3
46	7393	4.51	3
46	7544	4.61	3
46	7694	4.71	3
46	7844	4.81	3
46	7994	4.91	3
46	8148	5.01	3
46	8298	5.11	3
46	8448	5.21	3
46	8598	5.31	3
46	8748	5.41	3
46	8899	5.51	3
46	9262	5.61	3
46	9412	5.71	3
46	9562	5.81	3
46	9712	5.91	3
46	9866	6.01	3
46	10016	6.11	3
46	10166	6.21	3
46	10316	6.31	3
46	10466	6.41	3
46	10616	6.51	3
46	11023	6.61	3
46	11174	6.71	3
46	11324	6.81	3
46	11474	6.91	3
46	11628	7.01	3
46	11778	7.11	3
46	11928	7.21	3
46	12078	7.31	3
46	12228	7.41	3
46	12378	7.51	3
46	12529	7.61	3
46	12892	7.71	3
46	13042	7.81	3
46	13192	7.91	3
46	13346	8.01	3
46	13496	8.11	3
46	13646	8.21	3
46	13796	8.31	3
46	13946	8.41	3
46	14096	8.51	3
46	14246	8.61	3
46	14609	8.71	3
46	14760	8.81	3
46	14910	8.91	3
46	15064	9.01	3
46	15214	9.11	3
46	15364	9.21	3
46	15514	9.31	3
46	15664	9.41	3
46	15814	9.51	3
46	15964	9.61	3
46	16115	9.71	3
46	16522	9.81	3
46	16672	9.91	3
46	16826	10.01	3
46	16976	10.11	3
46	17126	10.21	3
46	17276	10.31	3
46	17426	10.41	3
46	17576	10.51	3
46	17726	10.61	3
46	17876	10.71	3
46	18239	10.81	3
46	18390	10.91	3
46	18544	11.01	3
46	18694	11.11	3
46	18844	11.21	3
46	18994	11.31	3
46	19144	11.41	3
46	19294	11.51	3
46	19444	11.61	3
46	19594	11.71	3
46	19745	11.81	3
46	20108	11.91	3
46	20262	12.01	3
46	20412	12.11	3
46	20562	12.21	3
46	20712	12.31	3
46	20862	12.41	3
46	21012	12.51	3
46	21162	12.61	3
46	21312	12.71	3
46	21462	12.81	3
46	21869	12.91	3
46	22024	13.01	3
46	22174	13.11	3
46	22324	13.21	3
46	22474	13.31	3
46	22624	13.41	3
46	22774	13.51	3
46	22924	13.61	3
46	23074	13.71	3
46	23224	13.81	3
46	23375	13.91	3
46	23742	14.01	3
46	23892	14.11	3
46	24042	14.21	3
46	24192	14.31	3
46	24342	14.41	3
46	24492	14.51	3
46	24642	14.61	3
46	24792	14.71	3
46	24942	14.81	3
46	25092	14.91	3
46	25459	15.01	3
46	25610	15.11	3
46	25760	15.21	3
46	25910	15.31	3
46	26060	15.41	3
46	26210	15.51	3
46	26360	15.61	3
46	26510	15.71	3
46	26660	15.81	3
46	26810	15.91	3
46	26964	16.01	3
46	27114	16.11	3
46	27264	16.21	3
46	27414	16.31	3
46	27564	16.41	3
46	27714	16.51	3
46	27864	16.61	3
46	28014	16.71	3
46	28164	16.81	3
46	28314	16.91	3
46	28468	17.01	3
46	28618	17.11	3
46	28768	17.21	3
46	28918	17.31	3
46	29068	17.41	3
46	29218	17.51	3
46	29368	17.61	3
46	29518	17.71	3
46	29668	17.81	3
46	29818	17.91	3
46	29972	18.01	3
46	30122	18.11	3
46	30272	18.21	3
46	30422	18.31	3
46	30572	18.41	3
46	30722	18.51	3
46	30872	18.61	3
46	31022	18.71	3
46	31172	18.81	3
46	31322	18.91	3
46	31476	19.01	3
46	31626	19.11	3
46	31776	19.21	3
46	31926	19.31	3
46	32076	19.41	3
46	32226	19.51	3
46	32376	19.61	3
46	32526	19.71	3
46	32676	19.81	3
46	32826	19.91	3
46	32980	20.01	3
46	33130	20.11	3
46	33280	20.21	3
46	33430	20.31	3
46	33580	20.41	3
46	33730	20.51	3
46	33880	20.61	3
46	34030	20.71	3
46	34180	20.81	3
46	34330	20.91	3
46	34484	21.01	3
46	34634	21.11	3
46	34784	21.21	3
46	34934	21.31	3
46	35084	21.41	3
46	35234	21.51	3
46	35384	21.61	3
46	35534	21.71	3
46	35684	21.81	3
46	35834	21.91	3
46	35988	22.01	3
46	36138	22.11	3
46	36288	22.21	3
46	36438	22.31	3
46	36588	22.41	3
46	36738	22.51	3
46	36888	22.61	3
46	37038	22.71	3
46	37188	22.81	3
46	37338	22.91	3
46	37492	23.01	3
46	37642	23.11	3
46	37792	23.21	3
46	37942	23.31	3
46	38092	23.41	3
46	38242	23.51	3
46	38392	23.61	3
46	38542	23.71	3
46	38692	23.81	3
46	38842	23.91	3
46	38996	24.01	3
46	39146	24.11	3
46	39296	24.21	3
46	39446	24.31	3
46	39596	24.41	3
46	39746	24.51	3
46	39896	24.61	3
46	40046	24.71	3
46	40196	24.81	3
46	40346	24.91	3
46	40500	25.01	3
46	40650	25.11	3
46	40800	25.21	3
46	40950	25.31	3
46	41100	25.41	3
46	41250	25.51	3
46	41400	25.61	3
46	41550	25.71	3
46	41700	25.81	3
46	41850	25.91	3
46	42004	26.01	3
46	42154	26.11	3
46	42304	26.21	3
46	42454	26.31	3
46	42604	26.41	3
46	42754	26.51	3
46	42904	26.61	3
46	43055	26.71	3
46	43205	26.81	3
46	43355	26.91	3
46	43509	27.01	3
46	43659	27.11	3
46	43809	27.21	3
46	43959	27.31	3
46	44109	27.41	3
46	44259	27.51	3
46	44409	27.61	3
46	44559	27.71	3
46	44709	27.81	3
46	44859	27.91	3
46	45013	28.01	3
46	45163	28.11	3
46	45313	28.21	3
46	45463	28.31	3
46	45613	28.41	3
46	45763	28.51	3
46	45913	28.61	3
46	46063	28.71	3
46	46213	28.81	3
46	46363	28.91	3
46	46517	29.01	3
46	46667	29.11	3
46	46817	29.21	3
46	46967	29.31	3
46	47117	29.41	3
46	47267	29.51	3
46	47417	29.61	3
46	47567	29.71	3
46	47717	29.81	3
46	47867	29.91	3
46	48021	30.01	3
46	48171	30.11	3
46	48321	30.21	3
46	48471	30.31	3
46	48621	30.41	3
46	48771	30.51	3
46	48921	30.61	3
46	49071	30.71	3
46	49221	30.81	3
46	49371	30.91	3
46	49525	31.01	3
46	49675	31.11	3
46	49825	31.21	3
46	49975	31.31	3
46	50125	31.41	3
46	50275	31.51	3
46	50425	31.61	3
46	50575	31.71	3
46	50725	31.81	3
46	50875	31.91	3
46	51029	32.01	3
46	51179	32.11	3
46	51329	32.21	3
46	51479	32.31	3
46	51629	32.41	3
46	51779	32.51	3
46	51929	32.61	3
46	52079	32.71	3
46	52229	32.81	3
46	52379	32.91	3
46	52533	33.01	3
46	52683	33.11	3
46	52833	33.21	3
46	52983	33.31	3
46	53133	33.41	3
46	53283	33.51	3
46	53433	33.61	3
46	53583	33.71	3
46	53733	33.81	3
46	53883	33.91	3
46	54037	34.01	3
46	54187	34.11	3
46	54337	34.21	3
46	54487	34.31	3
67	1191	1	0
67	2911	2	0
67	4629	3	0
67	6391	4	0
67	8109	5	0
67	9827	6	0
67	11589	7	0
67	13307	8	0
67	15025	9	0
67	16787	10	0
67	18505	11	0
67	20223	12	0
67	21985	13	0
67	23703	14	0
67	25420	15	0
67	26925	16	0
67	28429	17	0
67	29933	18	0
67	31437	19	0
67	32941	20	0
67	34445	21	0
67	35949	22	0
67	37453	23	0
67	38957	24	0
67	40461	25	0
67	41965	26	0
67	43470	27	0
67	44974	28	0
67	46478	29	0
67	47982	30	0
67	49486	31	0
67	50990	32	0
67	52494	33	0
67	53998	34	0
66	1191	1	0.009679
66	2911	2	0.0130056401
66	4629	3	0.013005393034
66	6391	4	0.013053163114
66	8109	5	0.013004938406
66	9827	6	0.01300471553
66	11589	7	0.01314749444
66	13307	8	0.01300427542
66	15025	9	0.013004058458
66	16787	10	0.013146843378
66	18505	11	0.013003629996
66	20223	12	0.013003418192
66	21985	13	0.013146208096
66	23703	14	0.013003021488
66	25420	15	0.01300321188
66	26925	16	0.01249
66	28429	17	0.01249
66	29933	18	0.01249
66	31437	19	0.01249
66	32941	20	0.01249
66	34445	21	0.01249
66	35949	22	0.01249
66	37453	23	0.01249
66	38957	24	0.01249
66	40461	25	0.01249
66	41965	26	0.01249
66	43470	27	0.01249
66	44974	28	0.01249
66	46478	29	0.01249
66	47982	30	0.01249
66	49486	31	0.01249
66	50990	32	0.01249
66	52494	33	0.01249
66	53998	34	0.01249
65	1191	1	3
65	2911	2	3
65	4629	3	3
65	6391	4	3
65	8109	5	3
65	9827	6	3
65	11589	7	3
65	13307	8	3
65	15025	9	3
65	16787	10	3
65	18505	11	3
65	20223	12	3
65	21985	13	3
65	23703	14	3
65	25420	15	3
65	26925	16	3
65	28429	17	3
65	29933	18	3
65	31437	19	3
65	32941	20	3
65	34445	21	3
65	35949	22	3
65	37453	23	3
65	38957	24	3
65	40461	25	3
65	41965	26	3
65	43470	27	3
65	44974	28	3
65	46478	29	3
65	47982	30	3
65	49486	31	3
65	50990	32	3
65	52494	33	3
65	53998	34	3
19	15	0.13	2.0853273352073
19	16	0.14	2.085616010237
19	17	0.15	2.0858989433833
19	18	0.16	2.0861761917998
19	19	0.17	2.0864478126326
19	20	0.18	2.0867138630082
19	21	0.19	2.0869744000242
19	22	0.2	2.0872294807358
19	27	0.21	2.087479162149
19	62	0.22	2.0877235012076
19	97	0.23	2.0879625547856
19	98	0.24	2.088196379675
19	99	0.25	2.0884250325788
19	134	0.26	2.0886485701005
19	135	0.27	2.0888670487345
19	136	0.28	2.0890805248584
19	137	0.29	2.0892890547227
19	138	0.3	2.0894926944442
19	177	0.31	2.0896914999963
19	212	0.32	2.0898855272017
19	247	0.33	2.0900748317244
19	248	0.34	2.0902594690604
19	249	0.35	2.0904394945323
19	284	0.36	2.0906149632809
19	285	0.37	2.090785930258
19	286	0.38	2.090952450219
19	287	0.39	2.0911145777171
19	288	0.4	2.0912723670965
19	327	0.41	2.0914258724845
19	362	0.42	2.091575147786
19	397	0.43	2.0917202466786
19	398	0.44	2.0918612226042
19	399	0.45	2.0919981287645
19	434	0.46	2.0921310181157
19	435	0.47	2.0922599433618
19	436	0.48	2.0923849569508
19	437	0.49	2.0925061110679
19	438	0.5	2.0926234576312
19	477	0.51	2.0927370482872
19	512	0.52	2.0928469344046
19	547	0.53	2.0929531670713
19	548	0.54	2.0930557970892
19	549	0.55	2.0931548749693
19	584	0.56	2.0932504509297
19	585	0.57	2.0933425748885
19	586	0.58	2.0934312964619
19	587	0.59	2.0935166649597
19	588	0.6	2.0935987293824
19	627	0.61	2.0936775384165
19	662	0.62	2.0937531404329
19	697	0.63	2.093825583481
19	698	0.64	2.0938949152886
19	699	0.65	2.0939611832565
19	734	0.66	2.0940244344572
19	735	0.67	2.0940847156306
19	736	0.68	2.0941420731828
19	737	0.69	2.094196553183
19	738	0.7	2.0942482013616
19	777	0.71	2.0942970631061
19	812	0.72	2.0943431834614
19	847	0.73	2.094386607126
19	848	0.74	2.0944273784507
19	849	0.75	2.0944655414374
19	884	0.76	2.0945011397349
19	885	0.77	2.0945342166399
19	886	0.78	2.0945648150948
19	887	0.79	2.0945929776858
19	888	0.8	2.0946187466409
19	927	0.81	2.0946421638297
19	962	0.82	2.094663270763
19	997	0.83	2.0946821085886
19	998	0.84	2.0946987180946
19	999	0.85	2.0947131397048
19	1034	0.86	2.0947254134799
19	1035	0.87	2.0947355791159
19	1036	0.88	2.0947436759446
19	1037	0.89	2.0947497429315
19	1038	0.9	2.0947538186761
19	1077	0.91	2.0947559414127
19	1112	0.92	2.0947561490076
19	1147	0.93	2.0947544789611
19	1148	0.94	2.0947509684062
19	1149	0.95	2.0947456541087
19	1184	0.96	2.094738572467
19	1185	0.97	2.0947297595129
19	1186	0.98	2.0947192509108
19	1187	0.99	2.0947070819592
19	1192	1	2.0946932875896
19	1231	1.01	2.0946779023669
19	1266	1.02	2.0946609604913
19	1301	1.03	2.0946424957977
19	1302	1.04	2.0946225417552
19	1303	1.05	2.0946011314702
19	1338	1.06	2.0945782976843
19	1339	1.07	2.0945540727778
19	1340	1.08	2.0945284887679
19	1341	1.09	2.0945015773111
19	1342	1.1	2.0944733697033
19	1382	1.11	2.0944438968816
19	1417	1.12	2.0944131894246
19	1452	1.13	2.0943812775532
19	1453	1.14	2.094348191132
19	1454	1.15	2.0943139596711
19	1489	1.16	2.0942786123266
19	1490	1.17	2.0942421779012
19	1491	1.18	2.0942046848464
19	1492	1.19	2.0941661612641
19	1493	1.2	2.0941266349065
19	1533	1.21	2.094086133179
19	1568	1.22	2.0940446831414
19	1603	1.23	2.0940023115085
19	1604	1.24	2.0939590446521
19	1605	1.25	2.0939149086034
19	1640	1.26	2.093869929052
19	1641	1.27	2.0938241313517
19	1642	1.28	2.0937775405176
19	1643	1.29	2.0937301812312
19	1644	1.3	2.0936820778407
19	1684	1.31	2.0936332543627
19	1931	1.32	2.0935837344852
19	1966	1.33	2.0935335415669
19	1967	1.34	2.0934826986409
19	1968	1.35	2.0934312284173
19	2004	1.36	2.0933791532837
19	2005	1.37	2.093326495307
19	2006	1.38	2.0932732762359
19	2007	1.39	2.0932195175031
19	2008	1.4	2.0931652402272
19	2047	1.41	2.0931104652143
19	2082	1.42	2.0930552129598
19	2117	1.43	2.092999503652
19	2118	1.44	2.0929433571722
19	2119	1.45	2.0928867930979
19	2154	1.46	2.0928298307049
19	2155	1.47	2.0927724889691
19	2156	1.48	2.092714786569
19	2157	1.49	2.092656741888
19	2158	1.5	2.0925983730161
19	2197	1.51	2.0925396977518
19	2232	1.52	2.092480733605
19	2267	1.53	2.0924214977993
19	2268	1.54	2.092362007274
19	2269	1.55	2.0923022786863
19	2304	1.56	2.0922423284129
19	2305	1.57	2.0921821725541
19	2306	1.58	2.092121826934
19	2307	1.59	2.0920613071039
19	2308	1.6	2.0920006283447
19	2347	1.61	2.0919398056686
19	2382	1.62	2.0918788538226
19	2417	1.63	2.0918177872894
19	2418	1.64	2.09175662029
19	2419	1.65	2.0916953667863
19	2454	1.66	2.091634040484
19	2455	1.67	2.0915726548346
19	2456	1.68	2.0915112230366
19	2457	1.69	2.0914497580396
19	2458	1.7	2.0913882725461
19	2497	1.71	2.0913267790125
19	2532	1.72	2.0912652896544
19	2567	1.73	2.091203816445
19	2568	1.74	2.0911423711215
19	2569	1.75	2.0910809651846
19	2604	1.76	2.0910196099013
19	2605	1.77	2.0909583163092
19	2606	1.78	2.090897095217
19	2607	1.79	2.0908359572064
19	2608	1.8	2.0907749126364
19	2647	1.81	2.0907139716446
19	2682	1.82	2.0906531441487
19	2717	1.83	2.0905924398508
19	2718	1.84	2.0905318682378
19	2719	1.85	2.0904714385848
19	2754	1.86	2.0904111599578
19	2755	1.87	2.0903510412149
19	2756	1.88	2.0902910910094
19	2757	1.89	2.0902313177918
19	2758	1.9	2.0901717298122
19	2797	1.91	2.0901123351229
19	2832	1.92	2.0900531415806
19	2867	1.93	2.089994156848
19	2868	1.94	2.0899353883973
19	2869	1.95	2.089876843511
19	2904	1.96	2.0898185292856
19	2905	1.97	2.0897604526335
19	2906	1.98	2.0897026202837
19	2907	1.99	2.0896450387873
19	2912	2	2.0895877145159
19	2951	2.01	2.089530653667
19	2986	2.02	2.0894738622648
19	3021	2.03	2.0894173461621
19	3022	2.04	2.0893611110433
19	3023	2.05	2.0893051624263
19	3058	2.06	2.0892495056644
19	3059	2.07	2.0891941459488
19	3060	2.08	2.0891390883113
19	3061	2.09	2.0890843376246
19	3062	2.1	2.0890298986064
19	3101	2.11	2.0889757758214
19	3136	2.12	2.0889219736814
19	3171	2.13	2.0888684964498
19	3172	2.14	2.0888153482423
19	3173	2.15	2.0887625330303
19	3208	2.16	2.0887100546405
19	3209	2.17	2.0886579167596
19	3210	2.18	2.0886061229357
19	3211	2.19	2.0885546765785
19	3212	2.2	2.0885035809635
19	3251	2.21	2.0884528392327
19	3286	2.22	2.088402454398
19	3321	2.23	2.0883524293415
19	3322	2.24	2.0883027668189
19	3323	2.25	2.0882534694603
19	3358	2.26	2.0882045397722
19	3359	2.27	2.0881559801413
19	3360	2.28	2.0881077928332
19	3361	2.29	2.0880599799974
19	3362	2.3	2.0880125436671
19	3401	2.31	2.0879654857622
19	3436	2.32	2.0879188080905
19	3471	2.33	2.0878725123497
19	3472	2.34	2.0878266001294
19	3473	2.35	2.0877810729131
19	3509	2.36	2.0877359320795
19	3722	2.37	2.0876911789051
19	3723	2.38	2.0876468145639
19	3724	2.39	2.0876028401319
19	3725	2.4	2.087559256587
19	3765	2.41	2.087516064812
19	3800	2.42	2.0874732655942
19	3835	2.43	2.08743085963
19	3836	2.44	2.0873888475237
19	3837	2.45	2.0873472297915
19	3872	2.46	2.0873060068616
19	3873	2.47	2.0872651790765
19	3874	2.48	2.0872247466944
19	3875	2.49	2.0871847098914
19	3876	2.5	2.0871450687619
19	3915	2.51	2.0871058233216
19	3950	2.52	2.0870669735077
19	3985	2.53	2.0870285191812
19	3986	2.54	2.0869904601281
19	3987	2.55	2.0869527960613
19	4022	2.56	2.0869155266218
19	4023	2.57	2.0868786513805
19	4024	2.58	2.0868421698389
19	4025	2.59	2.0868060814313
19	4026	2.6	2.0867703855264
19	4065	2.61	2.0867350814276
19	4100	2.62	2.0867001683754
19	4135	2.63	2.0866656455491
19	4136	2.64	2.0866315120668
19	4137	2.65	2.0865977669881
19	4172	2.66	2.0865644093143
19	4173	2.67	2.0865314379905
19	4174	2.68	2.0864988519065
19	4175	2.69	2.0864666498989
19	4176	2.7	2.0864348307516
19	4215	2.71	2.086403393197
19	4250	2.72	2.0863723359179
19	4285	2.73	2.0863416575482
19	4286	2.74	2.0863113566737
19	4287	2.75	2.0862814318352
19	4322	2.76	2.0862518815266
19	4323	2.77	2.0862227041999
19	4324	2.78	2.0861938982626
19	4325	2.79	2.0861654620814
19	4326	2.8	2.0861373939823
19	4365	2.81	2.0861096922523
19	4400	2.82	2.0860823551396
19	4435	2.83	2.0860553808559
19	4436	2.84	2.0860287675757
19	4437	2.85	2.0860025134395
19	4472	2.86	2.085976616554
19	4473	2.87	2.0859510749921
19	4474	2.88	2.0859258867956
19	4475	2.89	2.0859010499742
19	4476	2.9	2.0858765625096
19	4515	2.91	2.0858524223528
19	4550	2.92	2.0858286274276
19	4585	2.93	2.0858051756313
19	4586	2.94	2.0857820648336
19	4587	2.95	2.0857592928811
19	4622	2.96	2.085736857595
19	4623	2.97	2.0857147567727
19	4624	2.98	2.0856929881909
19	4625	2.99	2.0856715496027
19	4630	3	2.085650438742
19	4669	3.01	2.0856296533227
19	4704	3.02	2.0856091910394
19	4739	3.03	2.0855890495682
19	4740	3.04	2.0855692265686
19	4741	3.05	2.0855497196831
19	4776	3.06	2.0855305265381
19	4777	3.07	2.0855116447456
19	4778	3.08	2.0854930719032
19	4779	3.09	2.0854748055952
19	4780	3.1	2.0854568433932
19	4819	3.11	2.0854391828564
19	4854	3.12	2.0854218215323
19	4889	3.13	2.0854047569589
19	4890	3.14	2.0853879866631
19	4891	3.15	2.0853715081638
19	4926	3.16	2.0853553189703
19	4927	3.17	2.0853394165849
19	4928	3.18	2.085323798502
19	4929	3.19	2.0853084622098
19	4930	3.2	2.0852934051898
19	4969	3.21	2.085278624919
19	5004	3.22	2.0852641188691
19	5039	3.23	2.0852498845074
19	5040	3.24	2.0852359192978
19	5041	3.25	2.0852222207011
19	5076	3.26	2.085208786176
19	5077	3.27	2.085195613179
19	5078	3.28	2.0851826991653
19	5079	3.29	2.0851700415888
19	5080	3.3	2.0851576379031
19	5119	3.31	2.0851454855626
19	5154	3.32	2.0851335820214
19	5189	3.33	2.0851219247354
19	5190	3.34	2.0851105111619
19	5191	3.35	2.0850993387603
19	5226	3.36	2.0850884049923
19	5227	3.37	2.0850777073227
19	5228	3.38	2.0850672432202
19	5229	3.39	2.0850570101566
19	5230	3.4	2.0850470056083
19	5270	3.41	2.085037227056
19	5561	3.42	2.0850276719863
19	5596	3.43	2.0850183378901
19	5597	3.44	2.0850092222655
19	5598	3.45	2.0850003226158
19	5634	3.46	2.0849916364519
19	5635	3.47	2.0849831612904
19	5636	3.48	2.084974894656
19	5637	3.49	2.0849668340807
19	5638	3.5	2.0849589771047
19	5677	3.51	2.0849513212763
19	5712	3.52	2.0849438641531
19	5747	3.53	2.0849366033009
19	5748	3.54	2.0849295362947
19	5749	3.55	2.0849226607195
19	5784	3.56	2.0849159741697
19	5785	3.57	2.0849094742504
19	5786	3.58	2.0849031585768
19	5787	3.59	2.0848970247741
19	5788	3.6	2.0848910704791
19	5827	3.61	2.0848852933395
19	5862	3.62	2.0848796910146
19	5897	3.63	2.084874261175
19	5898	3.64	2.0848690015033
19	5899	3.65	2.0848639096944
19	5934	3.66	2.084858983455
19	5935	3.67	2.0848542205045
19	5936	3.68	2.0848496185754
19	5937	3.69	2.0848451754122
19	5938	3.7	2.0848408887739
19	5977	3.71	2.0848367564315
19	6012	3.72	2.0848327761697
19	6047	3.73	2.0848289457866
19	6048	3.74	2.0848252630952
19	6049	3.75	2.0848217259209
19	6084	3.76	2.0848183321048
19	6085	3.77	2.0848150795006
19	6086	3.78	2.0848119659779
19	6087	3.79	2.0848089894194
19	6088	3.8	2.0848061477236
19	6127	3.81	2.0848034388034
19	6162	3.82	2.0848008605864
19	6197	3.83	2.0847984110152
19	6198	3.84	2.0847960880475
19	6199	3.85	2.0847938896562
19	6234	3.86	2.08479181383
19	6235	3.87	2.0847898585727
19	6236	3.88	2.0847880219033
19	6237	3.89	2.084786301857
19	6238	3.9	2.0847846964839
19	6277	3.91	2.0847832038508
19	6312	3.92	2.0847818220392
19	6347	3.93	2.0847805491476
19	6348	3.94	2.0847793832893
19	6349	3.95	2.0847783225947
19	6384	3.96	2.0847773652093
19	6385	3.97	2.0847765092955
19	6386	3.98	2.0847757530309
19	6387	3.99	2.0847750946106
19	6392	4	2.0847745322447
19	6431	4.01	2.08477406416
19	6466	4.02	2.0847736885999
19	6501	4.03	2.0847734038236
19	6502	4.04	2.084773208107
19	6503	4.05	2.0847730997422
19	6538	4.06	2.0847730770372
19	6539	4.07	2.0847731383172
19	6540	4.08	2.0847732819233
19	6541	4.09	2.084773506213
19	6542	4.1	2.0847738095604
19	6581	4.11	2.084774190356
19	6616	4.12	2.0847746470063
19	6651	4.13	2.0847751779347
19	6652	4.14	2.0847757815804
19	6653	4.15	2.0847764563991
19	6688	4.16	2.084777200863
19	6689	4.17	2.0847780134603
19	6690	4.18	2.0847788926963
19	6691	4.19	2.0847798370912
19	6692	4.2	2.0847808451825
19	6731	4.21	2.0847819155236
19	6766	4.22	2.0847830466841
19	6801	4.23	2.0847842372497
19	6802	4.24	2.0847854858218
19	6803	4.25	2.0847867910183
19	6838	4.26	2.0847881514732
19	6839	4.27	2.084789565836
19	6840	4.28	2.0847910327727
19	6841	4.29	2.0847925509644
19	6842	4.3	2.0847941191082
19	6881	4.31	2.084795735918
19	6916	4.32	2.0847974001216
19	6951	4.33	2.084799110464
19	6952	4.34	2.0848008657047
19	6953	4.35	2.0848026646195
19	6988	4.36	2.0848045059992
19	6989	4.37	2.0848063886502
19	6990	4.38	2.0848083113938
19	6991	4.39	2.0848102730672
19	6992	4.4	2.0848122725223
19	7031	4.41	2.084814308626
19	7066	4.42	2.0848163802605
19	7101	4.43	2.084818486323
19	7102	4.44	2.0848206257258
19	7103	4.45	2.0848227973951
19	7139	4.46	2.0848250002728
19	7352	4.47	2.084827233315
19	7353	4.48	2.084829495492
19	7354	4.49	2.0848317857892
19	7355	4.5	2.0848341032063
19	7395	4.51	2.0848364467573
19	7430	4.52	2.0848388154693
19	7465	4.53	2.0848412083856
19	7466	4.54	2.0848436245619
19	7467	4.55	2.084846063068
19	7502	4.56	2.0848485229881
19	7503	4.57	2.0848510034205
19	7504	4.58	2.0848535034762
19	7505	4.59	2.08485602228
19	7506	4.6	2.0848585589709
19	7545	4.61	2.0848611127003
19	7580	4.62	2.0848636826339
19	7615	4.63	2.0848662679501
19	7616	4.64	2.0848688678397
19	7617	4.65	2.0848714815078
19	7652	4.66	2.0848741081716
19	7653	4.67	2.0848767470609
19	7654	4.68	2.0848793974184
19	7655	4.69	2.0848820585001
19	7656	4.7	2.0848847295736
19	7695	4.71	2.0848874099198
19	7730	4.72	2.0848900988306
19	7765	4.73	2.0848927956111
19	7766	4.74	2.0848954995782
19	7767	4.75	2.0848982100608
19	7802	4.76	2.0849009263999
19	7803	4.77	2.0849036479478
19	7804	4.78	2.0849063740685
19	7805	4.79	2.0849091041385
19	7806	4.8	2.0849118375444
19	7845	4.81	2.0849145736852
19	7880	4.82	2.0849173119708
19	7915	4.83	2.0849200518218
19	7916	4.84	2.0849227926702
19	7917	4.85	2.0849255339599
19	7952	4.86	2.0849282751439
19	7953	4.87	2.0849310156868
[...]
2	67935	55.23	931.55726268403
2	67936	55.24	931.69615168374
2	67937	55.25	931.83504068346
2	67956	55.26	931.97392968317
2	67957	55.27	932.11281868289
2	67958	55.28	932.2517076826
2	67959	55.29	932.39059668231
2	67960	55.3	932.52948568203
2	67963	55.31	932.66837468175
2	67964	55.32	932.80726368146
2	67983	55.33	932.94615268118
2	67984	55.34	933.0850416809
2	67985	55.35	933.22393068061
2	68004	55.36	933.36281968033
2	68005	55.37	933.50170868005
2	68006	55.38	933.64059767977
2	68007	55.39	933.77948667949
2	68008	55.4	933.91837567921
2	68011	55.41	934.05726467893
2	68012	55.42	934.19615367865
2	68031	55.43	934.33504267837
2	68032	55.44	934.47393167809
2	68033	55.45	934.61282067782
2	68052	55.46	934.75170967754
2	68053	55.47	934.89059867726
2	68054	55.48	935.02948767698
2	68055	55.49	935.16837667671
2	68056	55.5	935.30726567643
2	68059	55.51	935.44615467616
2	68060	55.52	935.58504367588
2	68079	55.53	935.72393267561
2	68080	55.54	935.86282167533
2	68081	55.55	936.00171067506
2	68100	55.56	936.14059967479
2	68101	55.57	936.27948867451
2	68102	55.58	936.41837767424
2	68103	55.59	936.55726667397
2	68104	55.6	936.6961556737
2	68107	55.61	936.83504467343
2	68108	55.62	936.97393367316
2	68127	55.63	937.11282267289
2	68128	55.64	937.25171167262
2	68129	55.65	937.39060067235
2	68148	55.66	937.52948967208
2	68149	55.67	937.66837867181
2	68150	55.68	937.80726767154
2	68151	55.69	937.94615667127
2	68152	55.7	938.08504567101
2	68155	55.71	938.22393467074
2	68156	55.72	938.36282367047
2	68175	55.73	938.50171267021
2	68176	55.74	938.64060166994
2	68177	55.75	938.77949066968
2	68196	55.76	938.91837966941
2	68197	55.77	939.05726866915
2	68198	55.78	939.19615766888
2	68199	55.79	939.33504666862
2	68200	55.8	939.47393566836
2	68203	55.81	939.61282466809
2	68204	55.82	939.75171366783
2	68223	55.83	939.89060266757
2	68224	55.84	940.02949166731
2	68225	55.85	940.16838066705
2	68244	55.86	940.30726966679
2	68245	55.87	940.44615866653
2	68246	55.88	940.58504766627
2	68247	55.89	940.72393666601
2	68248	55.9	940.86282566575
2	68251	55.91	941.00171466549
2	68252	55.92	941.14060366523
2	68271	55.93	941.27949266497
2	68272	55.94	941.41838166472
2	68273	55.95	941.55727066446
2	68292	55.96	941.6961596642
2	68293	55.97	941.83504866395
2	68294	55.98	941.97393766369
2	68295	55.99	942.11282666343
2	68298	56	942.25171566318
2	68301	56.01	942.39060466292
2	68302	56.02	942.52949366267
2	68321	56.03	942.66838266242
2	68322	56.04	942.80727166216
2	68323	56.05	942.94616066191
2	68342	56.06	943.08504966166
2	68343	56.07	943.2239386614
2	68344	56.08	943.36282766115
2	68345	56.09	943.5017166609
2	68346	56.1	943.64060566065
2	68349	56.11	943.7794946604
2	68350	56.12	943.91838366015
2	68369	56.13	944.0572726599
2	68370	56.14	944.19616165965
2	68371	56.15	944.3350506594
2	68390	56.16	944.47393965915
2	68391	56.17	944.6128286589
2	68392	56.18	944.75171765866
2	68393	56.19	944.89060665841
2	68394	56.2	945.02949565816
2	68397	56.21	945.16838465791
2	68398	56.22	945.30727365767
2	68417	56.23	945.44616265742
2	68418	56.24	945.58505165718
2	68419	56.25	945.72394065693
2	68438	56.26	945.86282965669
2	68439	56.27	946.00171865644
2	68440	56.28	946.1406076562
2	68441	56.29	946.27949665595
2	68442	56.3	946.41838565571
2	68445	56.31	946.55727465547
2	68446	56.32	946.69616365522
2	68465	56.33	946.83505265498
2	68466	56.34	946.97394165474
2	68467	56.35	947.1128306545
2	68486	56.36	947.25171965426
2	68487	56.37	947.39060865402
2	68488	56.38	947.52949765378
2	68489	56.39	947.66838665354
2	68490	56.4	947.8072756533
2	68493	56.41	947.94616465306
2	68494	56.42	948.08505365282
2	68513	56.43	948.22394265258
2	68514	56.44	948.36283165234
2	68515	56.45	948.5017206521
2	68534	56.46	948.64060965187
2	68535	56.47	948.77949865163
2	68536	56.48	948.91838765139
2	68537	56.49	949.05727665116
2	68538	56.5	949.19616565092
2	68541	56.51	949.33505465069
2	68542	56.52	949.47394365045
2	68561	56.53	949.61283265022
2	68562	56.54	949.75172164998
2	68563	56.55	949.89061064975
2	68582	56.56	950.02949964951
2	68583	56.57	950.16838864928
2	68584	56.58	950.30727764905
2	68585	56.59	950.44616664881
2	68586	56.6	950.58505564858
2	68589	56.61	950.72394464835
2	68590	56.62	950.86283364812
2	68609	56.63	951.00172264789
2	68610	56.64	951.14061164766
2	68611	56.65	951.27950064743
2	68630	56.66	951.4183896472
2	68631	56.67	951.55727864697
2	68632	56.68	951.69616764674
2	68633	56.69	951.83505664651
2	68634	56.7	951.97394564628
2	68637	56.71	952.11283464605
2	68638	56.72	952.25172364582
2	68657	56.73	952.3906126456
2	68658	56.74	952.52950164537
2	68659	56.75	952.66839064514
2	68678	56.76	952.80727964491
2	68679	56.77	952.94616864469
2	68680	56.78	953.08505764446
2	68681	56.79	953.22394664424
2	68682	56.8	953.36283564401
2	68685	56.81	953.50172464379
2	68686	56.82	953.64061364356
2	68705	56.83	953.77950264334
2	68706	56.84	953.91839164312
2	68707	56.85	954.05728064289
2	68726	56.86	954.19616964267
2	68727	56.87	954.33505864245
2	68728	56.88	954.47394764222
2	68729	56.89	954.612836642
2	68730	56.9	954.75172564178
2	68733	56.91	954.89061464156
2	68734	56.92	955.02950364134
2	68753	56.93	955.16839264112
2	68754	56.94	955.3072816409
2	68755	56.95	955.44617064068
2	68774	56.96	955.58505964046
2	68775	56.97	955.72394864024
2	68776	56.98	955.86283764002
2	68777	56.99	956.0017266398
2	68780	57	956.14061563958
2	68783	57.01	956.27950463937
2	68784	57.02	956.41839363915
2	68803	57.03	956.55728263893
2	68804	57.04	956.69617163871
2	68805	57.05	956.8350606385
2	68824	57.06	956.97394963828
2	68825	57.07	957.11283863806
2	68826	57.08	957.25172763785
2	68827	57.09	957.39061663763
2	68828	57.1	957.52950563742
2	68831	57.11	957.66839463721
2	68832	57.12	957.80728363699
2	68851	57.13	957.94617263678
2	68852	57.14	958.08506163656
2	68853	57.15	958.22395063635
2	68872	57.16	958.36283963614
2	68873	57.17	958.50172863593
2	68874	57.18	958.64061763571
2	68875	57.19	958.7795066355
2	68876	57.2	958.91839563529
2	68879	57.21	959.05728463508
2	68880	57.22	959.19617363487
2	68899	57.23	959.33506263466
2	68900	57.24	959.47395163445
2	68901	57.25	959.61284063424
2	68920	57.26	959.75172963403
2	68921	57.27	959.89061863382
2	68922	57.28	960.02950763361
2	68923	57.29	960.1683966334
2	68924	57.3	960.30728563319
2	68927	57.31	960.44617463299
2	68928	57.32	960.58506363278
2	68947	57.33	960.72395263257
2	68948	57.34	960.86284163236
2	68949	57.35	961.00173063216
2	68968	57.36	961.14061963195
2	68969	57.37	961.27950863174
2	68970	57.38	961.41839763154
2	68971	57.39	961.55728663133
2	68972	57.4	961.69617563113
2	68975	57.41	961.83506463092
2	68976	57.42	961.97395363072
2	68995	57.43	962.11284263052
2	68996	57.44	962.25173163031
2	68997	57.45	962.39062063011
2	69016	57.46	962.52950962991
2	69017	57.47	962.6683986297
2	69018	57.48	962.8072876295
2	69019	57.49	962.9461766293
2	69020	57.5	963.0850656291
2	69023	57.51	963.22395462889
2	69024	57.52	963.36284362869
2	69043	57.53	963.50173262849
2	69044	57.54	963.64062162829
2	69045	57.55	963.77951062809
2	69064	57.56	963.91839962789
2	69065	57.57	964.05728862769
2	69066	57.58	964.19617762749
2	69067	57.59	964.33506662729
2	69068	57.6	964.4739556271
2	69071	57.61	964.6128446269
2	69072	57.62	964.7517336267
2	69091	57.63	964.8906226265
2	69092	57.64	965.0295116263
2	69093	57.65	965.16840062611
2	69112	57.66	965.30728962591
2	69113	57.67	965.44617862571
2	69114	57.68	965.58506762552
2	69115	57.69	965.72395662532
2	69116	57.7	965.86284562513
2	69119	57.71	966.00173462493
2	69120	57.72	966.14062362474
2	69139	57.73	966.27951262454
2	69140	57.74	966.41840162435
2	69141	57.75	966.55729062415
2	69160	57.76	966.69617962396
2	69161	57.77	966.83506862377
2	69162	57.78	966.97395762357
2	69163	57.79	967.11284662338
2	69164	57.8	967.25173562319
2	69167	57.81	967.39062462299
2	69168	57.82	967.5295136228
2	69187	57.83	967.66840262261
2	69188	57.84	967.80729162242
2	69189	57.85	967.94618062223
2	69208	57.86	968.08506962204
2	69209	57.87	968.22395862185
2	69210	57.88	968.36284762166
2	69211	57.89	968.50173662147
2	69212	57.9	968.64062562128
2	69215	57.91	968.77951462109
2	69216	57.92	968.9184036209
2	69235	57.93	969.05729262071
2	69236	57.94	969.19618162052
2	69237	57.95	969.33507062033
2	69256	57.96	969.47395962015
2	69257	57.97	969.61284861996
2	69258	57.98	969.75173761977
2	69259	57.99	969.89062661958
2	69262	58	970.0295156194
2	69265	58.01	970.16840461921
2	69266	58.02	970.30729361903
2	69285	58.03	970.44618261884
2	69286	58.04	970.58507161865
2	69287	58.05	970.72396061847
2	69306	58.06	970.86284961828
2	69307	58.07	971.0017386181
2	69308	58.08	971.14062761791
2	69309	58.09	971.27951661773
2	69310	58.1	971.41840561755
2	69313	58.11	971.55729461736
2	69314	58.12	971.69618361718
2	69333	58.13	971.835072617
2	69334	58.14	971.97396161681
2	69335	58.15	972.11285061663
2	69354	58.16	972.25173961645
2	69355	58.17	972.39062861627
2	69356	58.18	972.52951761609
2	69357	58.19	972.66840661591
2	69358	58.2	972.80729561573
2	69361	58.21	972.94618461554
2	69362	58.22	973.08507361536
2	69381	58.23	973.22396261518
2	69382	58.24	973.362851615
2	69383	58.25	973.50174061482
2	69402	58.26	973.64062961465
2	69403	58.27	973.77951861447
2	69404	58.28	973.91840761429
2	69405	58.29	974.05729661411
2	69406	58.3	974.19618561393
2	69409	58.31	974.33507461375
2	69410	58.32	974.47396361358
2	69429	58.33	974.6128526134
2	69430	58.34	974.75174161322
2	69431	58.35	974.89063061304
2	69450	58.36	975.02951961287
2	69451	58.37	975.16840861269
2	69452	58.38	975.30729761252
2	69453	58.39	975.44618661234
2	69454	58.4	975.58507561217
2	69457	58.41	975.72396461199
2	69458	58.42	975.86285361182
2	69477	58.43	976.00174261164
2	69478	58.44	976.14063161147
2	69479	58.45	976.27952061129
2	69498	58.46	976.41840961112
2	69499	58.47	976.55729861095
2	69500	58.48	976.69618761077
2	69501	58.49	976.8350766106
2	69502	58.5	976.97396561043
2	69505	58.51	977.11285461025
2	69506	58.52	977.25174361008
2	69525	58.53	977.39063260991
2	69526	58.54	977.52952160974
2	69527	58.55	977.66841060957
2	69546	58.56	977.8072996094
2	69547	58.57	977.94618860923
2	69548	58.58	978.08507760906
2	69549	58.59	978.22396660889
2	69550	58.6	978.36285560872
2	69553	58.61	978.50174460855
2	69554	58.62	978.64063360838
2	69573	58.63	978.77952260821
2	69574	58.64	978.91841160804
2	69575	58.65	979.05730060787
2	69594	58.66	979.1961896077
2	69595	58.67	979.33507860753
2	69596	58.68	979.47396760736
2	69597	58.69	979.6128566072
2	69598	58.7	979.75174560703
2	69601	58.71	979.89063460686
2	69602	58.72	980.0295236067
2	69621	58.73	980.16841260653
2	69622	58.74	980.30730160636
2	69623	58.75	980.4461906062
2	69642	58.76	980.58507960603
2	69643	58.77	980.72396860587
2	69644	58.78	980.8628576057
2	69645	58.79	981.00174660554
2	69646	58.8	981.14063560537
2	69649	58.81	981.27952460521
2	69650	58.82	981.41841360504
2	69669	58.83	981.55730260488
2	69670	58.84	981.69619160471
2	69671	58.85	981.83508060455
2	69690	58.86	981.97396960439
2	69691	58.87	982.11285860422
2	69692	58.88	982.25174760406
2	69693	58.89	982.3906366039
2	69694	58.9	982.52952560374
2	69697	58.91	982.66841460358
2	69698	58.92	982.80730360341
2	69717	58.93	982.94619260325
2	69718	58.94	983.08508160309
2	69719	58.95	983.22397060293
2	69738	58.96	983.36285960277
2	69739	58.97	983.50174860261
2	69740	58.98	983.64063760245
2	69741	58.99	983.77952660229
2	69744	59	983.91841560213
2	69747	59.01	984.05730460197
2	69748	59.02	984.19619360181
2	69767	59.03	984.33508260165
2	69768	59.04	984.47397160149
2	69769	59.05	984.61286060133
2	69788	59.06	984.75174960118
2	69789	59.07	984.89063860102
2	69790	59.08	985.02952760086
2	69791	59.09	985.1684166007
2	69792	59.1	985.30730560055
2	69795	59.11	985.44619460039
2	69796	59.12	985.58508360023
2	69815	59.13	985.72397260008
2	69816	59.14	985.86286159992
2	69817	59.15	986.00175059976
2	69836	59.16	986.14063959961
2	69837	59.17	986.27952859945
2	69838	59.18	986.4184175993
2	69839	59.19	986.55730659914
2	69840	59.2	986.69619559899
2	69843	59.21	986.83508459883
2	69844	59.22	986.97397359868
2	69863	59.23	987.11286259852
2	69864	59.24	987.25175159837
2	69865	59.25	987.39064059822
2	69884	59.26	987.52952959806
2	69885	59.27	987.66841859791
2	69886	59.28	987.80730759776
2	69887	59.29	987.94619659761
2	69888	59.3	988.08508559745
2	69891	59.31	988.2239745973
2	69892	59.32	988.36286359715
2	69911	59.33	988.501752597
2	69912	59.34	988.64064159685
2	69913	59.35	988.77953059669
2	69932	59.36	988.91841959654
2	69933	59.37	989.05730859639
2	69934	59.38	989.19619759624
2	69935	59.39	989.33508659609
2	69936	59.4	989.47397559594
2	69939	59.41	989.61286459579
2	69940	59.42	989.75175359564
2	69959	59.43	989.89064259549
2	69960	59.44	990.02953159534
2	69961	59.45	990.1684205952
2	69980	59.46	990.30730959505
2	69981	59.47	990.4461985949
2	69982	59.48	990.58508759475
2	69983	59.49	990.7239765946
2	69984	59.5	990.86286559446
2	69987	59.51	991.00175459431
2	69988	59.52	991.14064359416
2	70007	59.53	991.27953259401
2	70008	59.54	991.41842159387
2	70009	59.55	991.55731059372
2	70028	59.56	991.69619959357
2	70029	59.57	991.83508859343
2	70030	59.58	991.97397759328
2	70031	59.59	992.11286659314
2	70032	59.6	992.25175559299
2	70035	59.61	992.39064459285
2	70036	59.62	992.5295335927
2	70055	59.63	992.66842259256
2	70056	59.64	992.80731159241
2	70057	59.65	992.94620059227
2	70076	59.66	993.08508959212
2	70077	59.67	993.22397859198
2	70078	59.68	993.36286759183
2	70079	59.69	993.50175659169
2	70080	59.7	993.64064559155
2	70083	59.71	993.77953459141
2	70084	59.72	993.91842359126
2	70103	59.73	994.05731259112
2	70104	59.74	994.19620159098
2	70105	59.75	994.33509059084
2	70124	59.76	994.47397959069
2	70125	59.77	994.61286859055
2	70126	59.78	994.75175759041
2	70127	59.79	994.89064659027
2	70128	59.8	995.02953559013
2	70131	59.81	995.16842458999
2	70132	59.82	995.30731358985
2	70151	59.83	995.44620258971
2	70152	59.84	995.58509158957
2	70153	59.85	995.72398058943
2	70172	59.86	995.86286958929
2	70173	59.87	996.00175858915
2	70174	59.88	996.14064758901
2	70175	59.89	996.27953658887
2	70176	59.9	996.41842558873
2	70179	59.91	996.55731458859
2	70180	59.92	996.69620358845
2	70199	59.93	996.83509258832
2	70200	59.94	996.97398158818
2	70201	59.95	997.11287058804
2	70220	59.96	997.2517595879
2	70221	59.97	997.39064858777
2	70222	59.98	997.52953758763
2	70223	59.99	997.66842658749
2	70226	60	997.80731558736
2	70229	60.01	997.94620458722
2	70230	60.02	998.08509358708
2	70249	60.03	998.22398258695
2	70250	60.04	998.36287158681
2	70251	60.05	998.50176058668
2	70270	60.06	998.64064958654
2	70271	60.07	998.77953858641
2	70272	60.08	998.91842758627
2	70273	60.09	999.05731658614
2	70274	60.1	999.196205586
2	70277	60.11	999.33509458587
2	70278	60.12	999.47398358573
2	70297	60.13	999.6128725856
2	70298	60.14	999.75176158547
2	70299	60.15	999.89065058533
2	70318	60.16	1000.0295395852
2	70319	60.17	1000.1684285851
2	70320	60.18	1000.3073175849
2	70321	60.19	1000.4462065848
2	70322	60.2	1000.5850955847
2	70325	60.21	1000.7239845845
2	70326	60.22	1000.8628735844
2	70345	60.23	1001.0017625843
2	70346	60.24	1001.1406515841
2	70347	60.25	1001.279540584
2	70366	60.26	1001.4184295839
2	70367	60.27	1001.5573185837
2	70368	60.28	1001.6962075836
2	70369	60.29	1001.8350965835
2	70370	60.3	1001.9739855834
2	70373	60.31	1002.1128745832
2	70374	60.32	1002.2517635831
2	70393	60.33	1002.390652583
2	70394	60.34	1002.5295415828
2	70395	60.35	1002.6684305827
2	70414	60.36	1002.8073195826
2	70415	60.37	1002.9462085824
2	70416	60.38	1003.0850975823
2	70417	60.39	1003.2239865822
2	70418	60.4	1003.3628755821
2	70421	60.41	1003.5017645819
2	70422	60.42	1003.6406535818
2	70441	60.43	1003.7795425817
2	70442	60.44	1003.9184315816
2	70443	60.45	1004.0573205814
2	70462	60.46	1004.1962095813
2	70463	60.47	1004.3350985812
2	70464	60.48	1004.473987581
2	70465	60.49	1004.6128765809
2	70466	60.5	1004.7517655808
2	70469	60.51	1004.8906545807
2	70470	60.52	1005.0295435805
2	70489	60.53	1005.1684325804
2	70490	60.54	1005.3073215803
2	70491	60.55	1005.4462105802
2	70510	60.56	1005.58509958
2	70511	60.57	1005.7239885799
2	70512	60.58	1005.8628775798
2	70513	60.59	1006.0017665797
2	70514	60.6	1006.1406555795
2	70517	60.61	1006.2795445794
2	70518	60.62	1006.4184335793
2	70537	60.63	1006.5573225792
2	70538	60.64	1006.696211579
2	70539	60.65	1006.8351005789
2	70558	60.66	1006.9739895788
2	70559	60.67	1007.1128785787
2	70560	60.68	1007.2517675786
2	70561	60.69	1007.3906565784
2	70562	60.7	1007.5295455783
2	70565	60.71	1007.6684345782
2	70566	60.72	1007.8073235781
2	70585	60.73	1007.9462125779
2	70586	60.74	1008.0851015778
2	70587	60.75	1008.2239905777
2	70606	60.76	1008.3628795776
2	70607	60.77	1008.5017685775
2	70608	60.78	1008.6406575773
2	70609	60.79	1008.7795465772
2	70610	60.8	1008.9184355771
2	70613	60.81	1009.057324577
2	70614	60.82	1009.1962135769
2	70633	60.83	1009.3351025767
2	70634	60.84	1009.4739915766
2	70635	60.85	1009.6128805765
2	70654	60.86	1009.7517695764
2	70655	60.87	1009.8906585763
2	70656	60.88	1010.0295475761
2	70657	60.89	1010.168436576
2	70658	60.9	1010.3073255759
2	70661	60.91	1010.4462145758
2	70662	60.92	1010.5851035757
2	70681	60.93	1010.7239925755
2	70682	60.94	1010.8628815754
2	70683	60.95	1011.0017705753
2	70702	60.96	1011.1406595752
2	70703	60.97	1011.2795485751
2	70704	60.98	1011.418437575
2	70705	60.99	1011.5573265748
2	70708	61	1011.6962155747
2	70711	61.01	1011.8351045746
2	70712	61.02	1011.9739935745
2	70731	61.03	1012.1128825744
2	70732	61.04	1012.2517715743
2	70733	61.05	1012.3906605741
2	70752	61.06	1012.529549574
2	70753	61.07	1012.6684385739
2	70754	61.08	1012.8073275738
2	70755	61.09	1012.9462165737
2	70756	61.1	1013.0851055736
2	70759	61.11	1013.2239945734
2	70760	61.12	1013.3628835733
2	70779	61.13	1013.5017725732
2	70780	61.14	1013.6406615731
2	70781	61.15	1013.779550573
2	70800	61.16	1013.9184395729
2	70801	61.17	1014.0573285728
2	70802	61.18	1014.1962175726
2	70803	61.19	1014.3351065725
2	70804	61.2	1014.4739955724
2	70807	61.21	1014.6128845723
2	70808	61.22	1014.7517735722
2	70827	61.23	1014.8906625721
2	70828	61.24	1015.029551572
2	70829	61.25	1015.1684405719
2	70848	61.26	1015.3073295717
2	70849	61.27	1015.4462185716
2	70850	61.28	1015.5851075715
2	70851	61.29	1015.7239965714
2	70852	61.3	1015.8628855713
2	70855	61.31	1016.0017745712
2	70856	61.32	1016.1406660221
2	70867	61.33	1016.2795647778
2	70868	61.34	1016.4184755972
2	70869	61.35	1016.5574031456
2	70870	61.36	1016.6963519969
2	70871	61.37	1016.8353266355
2	70872	61.38	1016.9743314577
2	70873	61.39	1017.1133707735
2	70874	61.4	1017.2524488086
2	70876	61.41	1017.3915697058
2	70877	61.42	1017.5307375265
2	70888	61.43	1017.6699562528
2	70889	61.44	1017.8092297883
2	70890	61.45	1017.9485619604
2	70891	61.46	1018.0879565212
2	70892	61.47	1018.2274171495
2	70893	61.48	1018.3669474518
2	70894	61.49	1018.5065509638
2	70895	61.5	1018.646231152
2	70897	61.51	1018.785991415
2	70898	61.52	1018.9258350845
2	70909	61.53	1019.0657654273
2	70910	61.54	1019.2057856456
2	70911	61.55	1019.3458988793
2	70912	61.56	1019.4861082064
2	70913	61.57	1019.6264166448
2	70914	61.58	1019.766827153
2	70915	61.59	1019.9073426316
2	70916	61.6	1020.0479659244
2	70918	61.61	1020.1886998192
2	70919	61.62	1020.3295470495
2	70930	61.63	1020.4705102949
2	70931	61.64	1020.6115921824
2	70932	61.65	1020.7527952879
2	70933	61.66	1020.8941221364
2	70934	61.67	1021.0355752036
2	70935	61.68	1021.1771569165
2	70936	61.69	1021.3188696547
2	70937	61.7	1021.4607157509
2	70939	61.71	1021.6026974923
2	70940	61.72	1021.7448171211
2	70951	61.73	1021.8870768356
2	70952	61.74	1022.029478791
2	70953	61.75	1022.1720251002
2	70954	61.76	1022.3147178347
2	70955	61.77	1022.4575590254
2	70956	61.78	1022.6005506634
2	70957	61.79	1022.7436947006
2	70958	61.8	1022.8869930508
2	70960	61.81	1023.0304475902
2	70961	61.82	1023.1740601582
2	70972	61.83	1023.3178325583
2	70973	61.84	1023.4617665583
2	70974	61.85	1023.6058638917
2	70975	61.86	1023.7501262577
2	70976	61.87	1023.8945553225
2	70977	61.88	1024.0391527193
2	70978	61.89	1024.1839200495
2	70979	61.9	1024.328858883
2	70981	61.91	1024.473970759
2	70982	61.92	1024.6192571865
2	70993	61.93	1024.7647196448

