version 3
run OvertakeNoGui-133-20241104-09:59:36-90532
attr configname OvertakeNoGui
attr datetime 20241104-09:59:36
attr datetimef 20241104-095936
attr experiment OvertakeNoGui
attr inifile omnetpp.ini
attr iterationvars "$leaderHeadway=1.2, $leaderSpeed=50, $controller=0, $pCSpeed=51, $pDeltaC=484"
attr iterationvarsd leaderHeadway=1.2/leaderSpeed=50/controller=0/pCSpeed=51/pDeltaC=484
attr iterationvarsf leaderHeadway=1.2,leaderSpeed=50,controller=0,pCSpeed=51,pDeltaC=484-
attr measurement "$leaderHeadway=1.2, $leaderSpeed=50, $controller=0, $pCSpeed=51, $pDeltaC=484"
attr network Overtake
attr processid 90532
attr repetition 0
attr replication #0
attr resultdir results
attr runnumber 133
attr seedset 0
itervar controller 0
itervar leaderHeadway 1.2
itervar leaderSpeed 50
itervar pCSpeed 51
itervar pDeltaC 484
config image-path ../../../../veins/images;../../images
config *.manager.command "\"sumo\""
config *.manager.ignoreGuiCommands true
config *.node[*].scenario_type "\"OvertakeScenario\""
config output-vector-file results/OvertakeNoGui_51_484_0.vec
config output-scalar-file results/OvertakeNoGui_51_484_0.sca
config cmdenv-express-mode false
config cmdenv-autoflush true
config cmdenv-status-frequency 10s
config num-rngs 6
config cmdenv-output-file log.txt
config cmdenv-redirect-output true
config network Overtake
config debug-on-errors true
config print-undisposed true
config *.playgroundSizeX 65000m
config *.playgroundSizeY 25000m
config *.playgroundSizeZ 50m
config sim-time-limit "360 s"
config *.annotations.draw false
config *.obstacles.debug false
config *.world.useTorus false
config *.world.use2D false
config *.manager.updateInterval 0.01s
config *.manager.host "\"localhost\""
config *.manager.moduleType "\"vtypeauto=org.car2x.plexe.PlatoonCar vtypehuman=0\""
config *.manager.moduleName "\"vtypeauto=node vtypehuman=0\""
config *.manager.moduleDisplayString "\"\""
config *.manager.autoShutdown true
config *.manager.margin 25
config *.manager.order -1
config *.connectionManager.sendDirect true
config *.connectionManager.maxInterfDist 2600m
config *.connectionManager.drawMaxIntfDist false
config *.**.nic.mac1609_4.useServiceChannel false
config *.**.nic.mac1609_4.txPower 100mW
config *.**.nic.mac1609_4.bitrate 6Mbps
config *.**.nic.mac1609_4.useAcks true
config *.**.nic.mac1609_4.ackErrorRate 0.0
config *.**.nic.mac1609_4.frameErrorRate 0.0
config *.**.nic.phy80211p.minPowerLevel -94dBm
config *.**.nic.phy80211p.maxTXPower 100mW
config *.**.nic.phy80211p.useNoiseFloor true
config *.**.nic.phy80211p.noiseFloor -95dBm
config *.**.nic.phy80211p.decider "xmldoc(\"config.xml\")"
config *.**.nic.phy80211p.analogueModels "xmldoc(\"config.xml\")"
config *.**.nic.phy80211p.usePropagationDelay true
config *.node[*].mobility.x 0
config *.node[*].mobility.y 0
config *.node[*].mobility.z 1.895
config *.shockwave[*].mobility.x 0
config *.shockwave[*].mobility.y 0
config *.shockwave[*].mobility.z 1.895
config seed-set 0
config **.seed 0
config *.node[*].prot.rng-0 2
config *.node[*].appl.rng-0 3
config *.node[*].scenario.rng-0 4
config *.manager.configFile "\"./sumocfg/overtake.sumo.cfg\""
config *.manager.launchConfig "xmldoc(\"./sumocfg/overtake.launchd.xml\")"
config *.node[*].helper_type "\"PositionHelper\""
config *.node[*].scenario.caccC1 0.5
config *.node[*].scenario.caccXi 1
config *.node[*].scenario.caccOmegaN "0.2 Hz"
config *.node[*].scenario.caccSpacing "5 m"
config *.node[*].scenario.engineTau "0.5 s"
config *.node[*].scenario.ploegH "0.5 s"
config *.node[*].scenario.ploegKp 0.2
config *.node[*].scenario.ploegKd 0.7
config *.node[*].scenario.useRealisticEngine false
config *.node[*].scenario.targetController "\"CACC\""
config *.node[*].scenario.accHeadway "0.1 s"
config *.node[*].scenario.leaderHeadway "1.2 s"
config *.node[*].scenario.leaderSpeed "50 kmph"
config *.node[*].appl_type "\"OvertakeApp\""
config *.node[*].appl.*.scalar-recording true
config *.node[*].appl.*.vector-recording true
config *.node[*].appl.overtakeManeuver "\"OvertakeManeuver\""
config *.node[*].protocol_type "\"SimplePlatooningBeaconing\""
config *.node[*].prot.*.scalar-recording true
config *.node[*].prot.*.vector-recording true
config *.node[*].prot.beaconingInterval "0.1 s"
config *.node[*].prot.priority 4
config *.node[*].prot.packetSize 200
config *.node[*].prot.useControllerAcceleration true
config **.traffic_type "\"OvertakeTrafficManager\""
config **.traffic.platoonInsertTime "0.1 s"
config **.traffic.platooningVType "\"vtypeauto\""
config **.numericController 0
config **.traffic.platoonInsertDistance 5m
config **.traffic.platoonInsertHeadway 0s
config **.traffic.platoonLeaderHeadway 1.2s
config **.traffic.platoonASpeed 50kmph
config **.traffic.platoonBSpeed 100kmph
config **.traffic.platoonCSpeed 51kmph
config **.traffic.platoonSizeA 2
config **.traffic.platoonSizeB 1
config **.traffic.platoonSizeC 1
config **.traffic.initialPositionDeltaA 150
config **.traffic.initialPositionDeltaB 50
config **.traffic.initialPositionDeltaC 484
config **.traffic.controller "\"CACC\""
config **.scalar-recording true
config **.vector-recording true

vector 0 Overtake.node[0].mobility posx ETV
vector 1 Overtake.node[0].mobility posy ETV
vector 2 Overtake.node[1].mobility posx ETV
vector 3 Overtake.node[1].mobility posy ETV
vector 4 Overtake.node[2].mobility posx ETV
vector 5 Overtake.node[2].mobility posy ETV
vector 6 Overtake.node[3].mobility posx ETV
vector 7 Overtake.node[3].mobility posy ETV
vector 8 Overtake.node[0].mobility speed ETV
vector 9 Overtake.node[1].mobility speed ETV
vector 10 Overtake.node[2].mobility speed ETV
vector 11 Overtake.node[3].mobility speed ETV
vector 12 Overtake.node[0].mobility acceleration ETV
vector 13 Overtake.node[0].mobility co2emission ETV
vector 14 Overtake.node[1].mobility acceleration ETV
vector 15 Overtake.node[1].mobility co2emission ETV
vector 16 Overtake.node[2].mobility acceleration ETV
vector 17 Overtake.node[2].mobility co2emission ETV
vector 18 Overtake.node[3].mobility acceleration ETV
vector 19 Overtake.node[3].mobility co2emission ETV
vector 20 Overtake.node[0].appl distance ETV
vector 21 Overtake.node[0].appl relativeSpeed ETV
vector 22 Overtake.node[0].appl nodeId ETV
vector 23 Overtake.node[0].appl acceleration ETV
vector 24 Overtake.node[0].appl controllerAcceleration ETV
vector 25 Overtake.node[0].appl speed ETV
vector 26 Overtake.node[0].appl posx ETV
vector 27 Overtake.node[0].appl posy ETV
vector 28 Overtake.node[1].appl distance ETV
vector 29 Overtake.node[1].appl relativeSpeed ETV
vector 30 Overtake.node[1].appl nodeId ETV
vector 31 Overtake.node[1].appl acceleration ETV
vector 32 Overtake.node[1].appl controllerAcceleration ETV
vector 33 Overtake.node[1].appl speed ETV
vector 34 Overtake.node[1].appl posx ETV
vector 35 Overtake.node[1].appl posy ETV
vector 36 Overtake.node[2].appl distance ETV
vector 37 Overtake.node[2].appl relativeSpeed ETV
vector 38 Overtake.node[2].appl nodeId ETV
vector 39 Overtake.node[2].appl acceleration ETV
vector 40 Overtake.node[2].appl controllerAcceleration ETV
vector 41 Overtake.node[2].appl speed ETV
vector 42 Overtake.node[2].appl posx ETV
vector 43 Overtake.node[2].appl posy ETV
vector 44 Overtake.node[3].appl distance ETV
vector 45 Overtake.node[3].appl relativeSpeed ETV
vector 46 Overtake.node[3].appl nodeId ETV
vector 47 Overtake.node[3].appl acceleration ETV
vector 48 Overtake.node[3].appl controllerAcceleration ETV
vector 49 Overtake.node[3].appl speed ETV
vector 50 Overtake.node[3].appl posx ETV
vector 51 Overtake.node[3].appl posy ETV
vector 52 Overtake.node[1].prot leaderDelay ETV
vector 53 Overtake.node[1].prot leaderDelayId ETV
vector 54 Overtake.node[1].prot frontDelay ETV
vector 55 Overtake.node[1].prot frontDelayId ETV
vector 56 Overtake.node[0].prot nodeId ETV
vector 57 Overtake.node[0].prot busyTime ETV
vector 58 Overtake.node[0].prot collisions ETV
vector 59 Overtake.node[1].prot nodeId ETV
vector 60 Overtake.node[1].prot busyTime ETV
vector 61 Overtake.node[1].prot collisions ETV
vector 62 Overtake.node[2].prot nodeId ETV
vector 63 Overtake.node[2].prot busyTime ETV
vector 64 Overtake.node[2].prot collisions ETV
vector 65 Overtake.node[3].prot nodeId ETV
vector 66 Overtake.node[3].prot busyTime ETV
vector 67 Overtake.node[3].prot collisions ETV
40	25	0.21	-7.31626
40	175	0.31	-7.27191
40	325	0.41	-7.13253
40	475	0.51	-6.91644
40	625	0.61	-6.64
40	775	0.71	-6.31766
40	925	0.81	-5.96209
40	1075	0.91	-5.5843
40	1229	1.01	-5.19375
40	1380	1.11	-4.79846
40	1531	1.21	-4.40514
40	1682	1.31	-4.01936
40	2045	1.41	1.5
40	2195	1.51	1.5
40	2345	1.61	1.5
40	2495	1.71	1.5
40	2645	1.81	1.5
40	2795	1.91	1.5
40	2949	2.01	1.5
40	3099	2.11	1.5
40	3249	2.21	1.5
40	3399	2.31	1.5
40	3549	2.41	1.5
40	3699	2.51	1.5
40	3849	2.61	1.5
40	3999	2.71	1.5
40	4149	2.81	1.5
40	4299	2.91	1.5
40	4453	3.01	1.5
40	4603	3.11	1.5
40	4753	3.21	1.5
40	4903	3.31	1.5
40	5053	3.41	1.5
40	5203	3.51	1.5
40	5353	3.61	1.5
40	5503	3.71	1.5
40	5653	3.81	1.5
40	5803	3.91	1.5
40	5957	4.01	1.5
40	6107	4.11	1.5
40	6257	4.21	1.5
40	6407	4.31	1.5
40	6557	4.41	1.5
40	6707	4.51	1.5
40	6857	4.61	1.5
40	7007	4.71	1.5
40	7157	4.81	1.5
40	7307	4.91	1.5
40	7461	5.01	1.5
40	7611	5.11	1.5
40	7761	5.21	1.5
40	7911	5.31	1.5
40	8061	5.41	1.5
40	8211	5.51	1.5
40	8361	5.61	1.5
40	8511	5.71	1.5
40	8661	5.81	1.5
40	8811	5.91	1.41834
40	8965	6.01	1.27002
40	9115	6.11	1.12557
40	9265	6.21	0.986882
40	9415	6.31	0.855408
40	9565	6.41	0.732212
40	9715	6.51	0.618015
40	9865	6.61	0.513249
40	10015	6.71	0.418099
40	10165	6.81	0.332544
40	10315	6.91	0.256395
40	10469	7.01	0.189327
40	10619	7.11	0.130913
40	10769	7.21	0.0806441
40	10919	7.31	0.0379601
40	11069	7.41	0.00226353
40	11219	7.51	-0.0270607
40	11369	7.61	-0.0506314
40	11519	7.71	-0.0690595
40	11669	7.81	-0.0829383
40	11819	7.91	-0.0928362
40	11973	8.01	-0.0992909
40	12123	8.11	-0.102805
40	12273	8.21	-0.103844
40	12423	8.31	-0.102834
40	12573	8.41	-0.100161
40	12723	8.51	-0.0961712
40	12873	8.61	-0.0911736
40	13023	8.71	-0.0854386
40	13173	8.81	-0.0792014
40	13323	8.91	-0.0726642
40	13477	9.01	-0.0659982
40	13627	9.11	-0.0593459
40	13777	9.21	-0.0528244
40	13927	9.31	-0.046527
40	14077	9.41	-0.0405264
40	14227	9.51	-0.034877
40	14377	9.61	-0.0296169
40	14527	9.71	-0.0247707
40	14677	9.81	-0.0203507
40	14827	9.91	-0.0163599
40	14981	10.01	-0.0127925
40	15131	10.11	-0.00963662
40	15281	10.21	-0.00687483
40	15431	10.31	-0.0044859
40	15581	10.41	-0.00244569
40	15731	10.51	-0.000728138
40	15881	10.61	0.000693912
40	16031	10.71	0.00184804
40	16181	10.81	0.00276168
40	16331	10.91	0.00346166
40	16485	11.01	0.00397379
40	16635	11.11	0.00432264
40	16785	11.21	0.0045313
40	16935	11.31	0.00462119
40	17086	11.41	0.00461205
40	17236	11.51	0.00452183
40	17386	11.61	0.00436672
40	17536	11.71	0.00416115
40	17686	11.81	0.00391788
40	17836	11.91	0.00364804
40	17990	12.01	0.00336125
40	18140	12.11	0.00306569
40	18290	12.21	0.00276825
40	18440	12.31	0.00247459
40	18590	12.41	0.0021893
40	18740	12.51	0.001916
40	18890	12.61	0.00165743
40	19040	12.71	0.00141559
40	19190	12.81	0.0011918
40	19340	12.91	0.000986846
40	19494	13.01	0.00080101
40	19644	13.11	0.000634192
40	19794	13.21	0.000485969
40	19944	13.31	0.000355658
40	20094	13.41	0.000242378
40	20244	13.51	0.000145102
40	20394	13.61	6.26998e-05
40	20544	13.71	-6.02366e-06
40	20694	13.81	-6.22928e-05
40	20844	13.91	-0.000107336
40	20998	14.01	-0.000142362
40	21148	14.11	-0.000168541
40	21298	14.21	-0.000186995
40	21448	14.31	-0.00019878
40	21598	14.41	-0.000204882
40	21748	14.51	-0.000206213
40	21898	14.61	-0.000203607
40	22048	14.71	-0.000197816
40	22198	14.81	-0.000189518
40	22348	14.91	-0.000179312
40	22502	15.01	-0.000167723
40	22652	15.11	-0.000155208
40	22802	15.21	-0.000142157
40	22952	15.31	-0.000128902
40	23102	15.41	-0.000115715
40	23252	15.51	-0.000102822
40	23402	15.61	-9.04017e-05
40	23552	15.71	-7.85908e-05
40	23702	15.81	-6.74923e-05
40	23852	15.91	-5.7177e-05
40	24006	16.01	-4.76894e-05
40	24156	16.11	-3.90509e-05
40	24306	16.21	-3.12639e-05
40	24456	16.31	-2.43152e-05
40	24606	16.41	-1.81786e-05
40	24756	16.51	-1.28185e-05
40	24906	16.61	-8.19139e-06
40	25056	16.71	-4.24864e-06
40	25206	16.81	-9.38006e-07
40	25356	16.91	1.79469e-06
40	25510	17.01	4.00426e-06
40	25660	17.11	5.74506e-06
40	25810	17.21	7.07008e-06
40	25960	17.31	8.03025e-06
40	26110	17.41	8.67389e-06
40	26260	17.51	9.04633e-06
40	26410	17.61	9.18961e-06
40	26560	17.71	9.14232e-06
40	26710	17.81	8.93955e-06
40	26860	17.91	8.61287e-06
40	27014	18.01	8.1904e-06
40	27164	18.11	7.69693e-06
40	27314	18.21	7.15406e-06
40	27464	18.31	6.5804e-06
40	27614	18.41	5.99178e-06
40	27764	18.51	5.40143e-06
40	27914	18.61	4.82026e-06
40	28064	18.71	4.25705e-06
40	28214	18.81	3.71866e-06
40	28364	18.91	3.2103e-06
40	28518	19.01	2.73569e-06
40	28668	19.11	2.29727e-06
40	28818	19.21	1.89641e-06
40	28968	19.31	1.53356e-06
40	29118	19.41	1.20838e-06
40	29268	19.51	9.19955e-07
40	29418	19.61	6.66842e-07
40	29568	19.71	4.47242e-07
40	29718	19.81	2.59071e-07
40	29868	19.91	1.00058e-07
40	30022	20.01	-3.21819e-08
40	30172	20.11	-1.40087e-07
40	30322	20.21	-2.26095e-07
40	30472	20.31	-2.92596e-07
40	30622	20.41	-3.41902e-07
40	30772	20.51	-3.76218e-07
40	30922	20.61	-3.97621e-07
40	31072	20.71	-4.08047e-07
40	31222	20.81	-4.09282e-07
40	31372	20.91	-4.02954e-07
40	31526	21.01	-3.90535e-07
40	31676	21.11	-3.73343e-07
40	31826	21.21	-3.52543e-07
40	31976	21.31	-3.29157e-07
40	32126	21.41	-3.04069e-07
40	32276	21.51	-2.78033e-07
40	32426	21.61	-2.51688e-07
40	32576	21.71	-2.25563e-07
40	32726	21.81	-2.00084e-07
40	32876	21.91	-1.75595e-07
40	33030	22.01	-1.52355e-07
40	33180	22.11	-1.30558e-07
40	33330	22.21	-1.10335e-07
40	33480	22.31	-9.17666e-08
40	33630	22.41	-7.48877e-08
40	33780	22.51	-5.96977e-08
40	33930	22.61	-4.61661e-08
40	34080	22.71	-3.42375e-08
40	34230	22.81	-2.38376e-08
40	34380	22.91	-1.48788e-08
40	34534	23.01	-7.2621e-09
40	34684	23.11	-8.83915e-10
40	34834	23.21	4.36451e-09
40	34984	23.31	8.59153e-09
40	35134	23.41	1.19051e-08
40	35284	23.51	1.44098e-08
40	35434	23.61	1.62061e-08
40	35584	23.71	1.73891e-08
40	35734	23.81	1.80478e-08
40	35884	23.91	1.82641e-08
40	36038	24.01	1.81142e-08
40	36188	24.11	1.76662e-08
40	36338	24.21	1.6982e-08
40	36488	24.31	1.61162e-08
40	36638	24.41	1.51164e-08
40	36788	24.51	1.40258e-08
40	36938	24.61	1.28789e-08
40	37088	24.71	1.17076e-08
40	37238	24.81	1.05363e-08
40	37388	24.91	9.38662e-09
40	37542	25.01	8.27498e-09
40	37692	25.11	7.21485e-09
40	37842	25.21	6.21547e-09
40	37992	25.31	5.28431e-09
40	38142	25.41	4.42562e-09
40	38292	25.51	3.64189e-09
40	38442	25.61	2.93348e-09
40	38592	25.71	2.30003e-09
40	38742	25.81	1.73905e-09
40	38892	25.91	1.24771e-09
40	39046	26.01	8.22098e-10
40	39196	26.11	4.583e-10
40	39346	26.21	1.51701e-10
40	39496	26.31	-1.02673e-10
40	39646	26.41	-3.09441e-10
40	39796	26.51	-4.73577e-10
40	39946	26.61	-5.99698e-10
40	40096	26.71	-6.92424e-10
40	40246	26.81	-7.56017e-10
40	40396	26.91	-7.94387e-10
40	40550	27.01	-8.11795e-10
40	40700	27.11	-8.1144e-10
40	40850	27.21	-7.96518e-10
40	41000	27.31	-7.70228e-10
40	41150	27.41	-7.34346e-10
40	41300	27.51	-6.92069e-10
40	41450	27.61	-6.45173e-10
40	41600	27.71	-5.94724e-10
40	41750	27.81	-5.42855e-10
40	41900	27.91	-4.9063e-10
40	42054	28.01	-4.39115e-10
40	42204	28.11	-3.88667e-10
40	42354	28.21	-3.4035e-10
40	42504	28.31	-2.94875e-10
40	42654	28.41	-2.51887e-10
40	42804	28.51	-2.12452e-10
40	42954	28.61	-1.76215e-10
40	43104	28.71	-1.43174e-10
40	43254	28.81	-1.13332e-10
40	43404	28.91	-8.66862e-11
40	43558	29.01	-6.32383e-11
40	43708	29.11	-4.29878e-11
40	43858	29.21	-2.55795e-11
40	44008	29.31	-1.10134e-11
40	44158	29.41	1.42109e-12
40	44308	29.51	1.13687e-11
40	44458	29.61	1.95399e-11
40	44608	29.71	2.59348e-11
40	44758	29.81	3.05533e-11
40	44908	29.91	3.37508e-11
40	45062	30.01	3.58824e-11
40	45212	30.11	3.69482e-11
40	45362	30.21	3.73035e-11
40	45512	30.31	3.6593e-11
40	45662	30.41	3.55271e-11
40	45812	30.51	3.41061e-11
40	45962	30.61	3.23297e-11
40	46112	30.71	3.01981e-11
40	46262	30.81	2.80664e-11
40	46412	30.91	2.59348e-11
40	46566	31.01	2.38032e-11
40	46716	31.11	2.13163e-11
40	46866	31.21	1.91847e-11
40	47016	31.31	1.7053e-11
40	47166	31.41	1.49214e-11
40	47316	31.51	1.27898e-11
40	47466	31.61	1.06581e-11
40	47616	31.71	8.88178e-12
40	47766	31.81	7.10543e-12
40	47916	31.91	5.68434e-12
40	48070	32.01	4.26326e-12
40	48220	32.11	2.84217e-12
40	48370	32.21	1.77636e-12
40	48520	32.31	7.10543e-13
40	48670	32.41	0
40	48820	32.51	-1.06581e-12
40	48970	32.61	-1.77636e-12
40	49120	32.71	-2.4869e-12
40	49270	32.81	-3.19744e-12
40	49420	32.91	-3.55271e-12
40	49574	33.01	-4.26326e-12
40	49724	33.11	-4.61853e-12
40	49874	33.21	-4.9738e-12
40	50024	33.31	-5.32907e-12
40	50174	33.41	-5.68434e-12
40	50324	33.51	-6.03961e-12
40	50474	33.61	-6.39488e-12
40	50624	33.71	-6.39488e-12
40	50774	33.81	-6.75016e-12
40	50924	33.91	-7.10543e-12
40	51078	34.01	-7.10543e-12
40	51228	34.11	-7.4607e-12
40	51378	34.21	-7.4607e-12
40	51528	34.31	-7.4607e-12
40	51678	34.41	-7.81597e-12
40	51828	34.51	-7.81597e-12
40	51978	34.61	-7.81597e-12
40	52128	34.71	-8.17124e-12
40	52278	34.81	-8.17124e-12
40	52428	34.91	-8.17124e-12
40	52582	35.01	-8.17124e-12
40	52732	35.11	-8.17124e-12
39	25	0.21	-1.19161
39	175	0.31	-2.28894
39	325	0.41	-3.17121
39	475	0.51	-3.86188
39	625	0.61	-4.38329
39	775	0.71	-4.75649
39	925	0.81	-5.00118
39	1075	0.91	-5.13563
39	1229	1.01	-5.17662
39	1380	1.11	-5.1395
39	1531	1.21	-5.03814
39	1682	1.31	-4.88502
39	2045	1.41	-4.29527
39	2195	1.51	-3.25414
39	2345	1.61	-2.40005
39	2495	1.71	-1.6994
39	2645	1.81	-1.12462
39	2795	1.91	-0.653106
39	2949	2.01	-0.266297
39	3099	2.11	0.0510214
39	3249	2.21	0.311333
39	3399	2.31	0.524879
39	3549	2.41	0.700061
39	3699	2.51	0.843771
39	3849	2.61	0.961664
39	3999	2.71	1.05838
39	4149	2.81	1.13772
39	4299	2.91	1.2028
39	4453	3.01	1.25619
39	4603	3.11	1.29999
39	4753	3.21	1.33592
39	4903	3.31	1.3654
39	5053	3.41	1.38958
39	5203	3.51	1.40942
39	5353	3.61	1.42569
39	5503	3.71	1.43904
39	5653	3.81	1.44999
39	5803	3.91	1.45898
39	5957	4.01	1.46635
39	6107	4.11	1.47239
39	6257	4.21	1.47735
39	6407	4.31	1.48142
39	6557	4.41	1.48476
39	6707	4.51	1.4875
39	6857	4.61	1.48974
39	7007	4.71	1.49159
39	7157	4.81	1.4931
39	7307	4.91	1.49434
39	7461	5.01	1.49535
39	7611	5.11	1.49619
39	7761	5.21	1.49687
39	7911	5.31	1.49744
39	8061	5.41	1.4979
39	8211	5.51	1.49827
39	8361	5.61	1.49858
39	8511	5.71	1.49884
39	8661	5.81	1.49905
39	8811	5.91	1.49417
39	8965	6.01	1.46541
39	9115	6.11	1.41554
39	9265	6.21	1.34924
39	9415	6.31	1.27065
39	9565	6.41	1.18339
39	9715	6.51	1.09058
39	9865	6.61	0.994885
39	10015	6.71	0.898536
39	10165	6.81	0.80338
39	10315	6.91	0.710911
39	10469	7.01	0.622302
39	10619	7.11	0.538451
39	10769	7.21	0.460006
39	10919	7.31	0.387404
39	11069	7.41	0.320896
39	11219	7.51	0.26058
39	11369	7.61	0.206427
39	11519	7.71	0.1583
39	11669	7.81	0.11598
39	11819	7.91	0.0791828
39	11973	8.01	0.0475759
39	12123	8.11	0.0207939
39	12273	8.21	-0.00154957
39	12423	8.31	-0.0198512
39	12573	8.41	-0.0345089
39	12723	8.51	-0.0459144
39	12873	8.61	-0.0544474
39	13023	8.71	-0.0604708
39	13173	8.81	-0.0643275
39	13323	8.91	-0.0663376
39	13477	9.01	-0.0667967
39	13627	9.11	-0.0659753
39	13777	9.21	-0.0641182
39	13927	9.31	-0.0614446
39	14077	9.41	-0.0581493
39	14227	9.51	-0.0544031
39	14377	9.61	-0.0503541
39	14527	9.71	-0.0461294
39	14677	9.81	-0.0418363
39	14827	9.91	-0.037564
39	14981	10.01	-0.0333856
39	15131	10.11	-0.029359
39	15281	10.21	-0.0255292
39	15431	10.31	-0.0219296
39	15581	10.41	-0.0185833
39	15731	10.51	-0.0155049
39	15881	10.61	-0.0127014
39	16031	10.71	-0.0101738
39	16181	10.81	-0.00791774
39	16331	10.91	-0.005925
39	16485	11.01	-0.004184
39	16635	11.11	-0.00268073
39	16785	11.21	-0.00139944
39	16935	11.31	-0.000323233
39	17086	11.41	0.000565426
39	17236	11.51	0.00128429
39	17386	11.61	0.00185098
39	17536	11.71	0.00228266
39	17686	11.81	0.00259585
39	17836	11.91	0.00280622
39	17990	12.01	0.00292846
39	18140	12.11	0.00297621
39	18290	12.21	0.00296201
39	18440	12.31	0.00289723
39	18590	12.41	0.00279212
39	18740	12.51	0.00265582
39	18890	12.61	0.00249637
39	19040	12.71	0.00232079
39	19190	12.81	0.00213513
39	19340	12.91	0.00194453
39	19494	13.01	0.00175329
39	19644	13.11	0.00156496
39	19794	13.21	0.0013824
39	19944	13.31	0.00120784
39	20094	13.41	0.00104298
39	20244	13.51	0.000889024
39	20394	13.61	0.000746784
39	20544	13.71	0.000616703
39	20694	13.81	0.000498931
39	20844	13.91	0.000393368
39	20998	14.01	0.000299714
39	21148	14.11	0.000217509
39	21298	14.21	0.000146172
39	21448	14.31	8.50285e-05
39	21598	14.41	3.33446e-05
39	21748	14.51	-9.65228e-06
39	21898	14.61	-4.47515e-05
39	22048	14.71	-7.27425e-05
39	22198	14.81	-9.44002e-05
39	22348	14.91	-0.000110474
39	22502	15.01	-0.000121678
39	22652	15.11	-0.000128688
39	22802	15.21	-0.00013213
39	22952	15.31	-0.000132583
39	23102	15.41	-0.000130577
39	23252	15.51	-0.00012659
39	23402	15.61	-0.000121048
39	23552	15.71	-0.000114331
39	23702	15.81	-0.00010677
39	23852	15.91	-9.86524e-05
39	24006	16.01	-9.02236e-05
39	24156	16.11	-8.16909e-05
39	24306	16.21	-7.32259e-05
39	24456	16.31	-6.49682e-05
39	24606	16.41	-5.70288e-05
39	24756	16.51	-4.94929e-05
39	24906	16.61	-4.24231e-05
39	25056	16.71	-3.58625e-05
39	25206	16.81	-2.98373e-05
39	25356	16.91	-2.43594e-05
39	25510	17.01	-1.94287e-05
39	25660	17.11	-1.50353e-05
39	25810	17.21	-1.11616e-05
39	25960	17.31	-7.78356e-06
39	26110	17.41	-4.8728e-06
39	26260	17.51	-2.39756e-06
39	26410	17.61	-3.24003e-07
39	26560	17.71	1.38285e-06
39	26710	17.81	2.75826e-06
39	26860	17.91	3.8371e-06
39	27014	18.01	4.65331e-06
39	27164	18.11	5.23942e-06
39	27314	18.21	5.62626e-06
39	27464	18.31	5.8427e-06
39	27614	18.41	5.91545e-06
39	27764	18.51	5.86904e-06
39	27914	18.61	5.7257e-06
39	28064	18.71	5.50542e-06
39	28214	18.81	5.22596e-06
39	28364	18.91	4.90298e-06
39	28518	19.01	4.55008e-06
39	28668	19.11	4.17897e-06
39	28818	19.21	3.79958e-06
39	28968	19.31	3.4202e-06
39	29118	19.41	3.04763e-06
39	29268	19.51	2.68733e-06
39	29418	19.61	2.34356e-06
39	29568	19.71	2.01952e-06
39	29718	19.81	1.71747e-06
39	29868	19.91	1.43887e-06
39	30022	20.01	1.18452e-06
39	30172	20.11	9.54624e-07
39	30322	20.21	7.48903e-07
39	30472	20.31	5.66708e-07
39	30622	20.41	4.07081e-07
39	30772	20.51	2.68829e-07
39	30922	20.61	1.50593e-07
39	31072	20.71	5.08972e-08
39	31222	20.81	-3.18014e-08
39	31372	20.91	-9.9072e-08
39	31526	21.01	-1.52481e-07
39	31676	21.11	-1.93559e-07
39	31826	21.21	-2.23787e-07
39	31976	21.31	-2.4457e-07
39	32126	21.41	-2.57233e-07
39	32276	21.51	-2.63008e-07
39	32426	21.61	-2.63027e-07
39	32576	21.71	-2.58326e-07
39	32726	21.81	-2.49835e-07
39	32876	21.91	-2.38389e-07
39	33030	22.01	-2.24724e-07
39	33180	22.11	-2.09483e-07
39	33330	22.21	-1.93222e-07
39	33480	22.31	-1.76418e-07
39	33630	22.41	-1.59469e-07
39	33780	22.51	-1.42704e-07
39	33930	22.61	-1.26391e-07
39	34080	22.71	-1.10743e-07
39	34230	22.81	-9.59183e-08
39	34380	22.91	-8.20371e-08
39	34534	23.01	-6.91777e-08
39	34684	23.11	-5.73884e-08
39	34834	23.21	-4.66873e-08
39	34984	23.31	-3.70711e-08
39	35134	23.41	-2.85176e-08
39	35284	23.51	-2.09901e-08
39	35434	23.61	-1.44382e-08
39	35584	23.71	-8.80362e-09
39	35734	23.81	-4.02416e-09
39	35884	23.91	-3.09086e-11
39	36038	24.01	3.2454e-09
39	36188	24.11	5.87512e-09
39	36338	24.21	7.92681e-09
39	36488	24.31	9.46727e-09
39	36638	24.41	1.05615e-08
39	36788	24.51	1.12703e-08
39	36938	24.61	1.1649e-08
39	37088	24.71	1.17513e-08
39	37238	24.81	1.16248e-08
39	37388	24.91	1.13122e-08
39	37542	25.01	1.08521e-08
39	37692	25.11	1.02805e-08
39	37842	25.21	9.6275e-09
39	37992	25.31	8.91802e-09
39	38142	25.41	8.17693e-09
39	38292	25.51	7.42162e-09
39	38442	25.61	6.66951e-09
39	38592	25.71	5.93268e-09
39	38742	25.81	5.22178e-09
39	38892	25.91	4.54499e-09
39	39046	26.01	3.9087e-09
39	39196	26.11	3.3161e-09
39	39346	26.21	2.77041e-09
39	39496	26.31	2.27338e-09
39	39646	26.41	1.82467e-09
39	39796	26.51	1.42428e-09
39	39946	26.61	1.06972e-09
39	40096	26.71	7.59925e-10
39	40246	26.81	4.92406e-10
39	40396	26.91	2.63256e-10
39	40550	27.01	6.99885e-11
39	40700	27.11	-8.88178e-11
39	40850	27.21	-2.17426e-10
39	41000	27.31	-3.18678e-10
39	41150	27.41	-3.96128e-10
39	41300	27.51	-4.52616e-10
39	41450	27.61	-4.90985e-10
39	41600	27.71	-5.13722e-10
39	41750	27.81	-5.22604e-10
39	41900	27.91	-5.21183e-10
39	42054	28.01	-5.10525e-10
39	42204	28.11	-4.92406e-10
39	42354	28.21	-4.68958e-10
39	42504	28.31	-4.41247e-10
39	42654	28.41	-4.10338e-10
39	42804	28.51	-3.78364e-10
39	42954	28.61	-3.44968e-10
39	43104	28.71	-3.11928e-10
39	43254	28.81	-2.79954e-10
39	43404	28.91	-2.47979e-10
39	43558	29.01	-2.16005e-10
39	43708	29.11	-1.87228e-10
39	43858	29.21	-1.58806e-10
39	44008	29.31	-1.33937e-10
39	44158	29.41	-1.10489e-10
39	44308	29.51	-8.91731e-11
39	44458	29.61	-7.0699e-11
39	44608	29.71	-5.32907e-11
39	44758	29.81	-3.90799e-11
39	44908	29.91	-2.59348e-11
39	45062	30.01	-1.52767e-11
39	45212	30.11	-5.68434e-12
39	45362	30.21	1.42109e-12
39	45512	30.31	8.52651e-12
39	45662	30.41	1.27898e-11
39	45812	30.51	1.63425e-11
39	45962	30.61	1.98952e-11
39	46112	30.71	2.20268e-11
39	46262	30.81	2.20268e-11
39	46412	30.91	2.20268e-11
39	46566	31.01	2.20268e-11
39	46716	31.11	2.20268e-11
39	46866	31.21	2.20268e-11
39	47016	31.31	2.20268e-11
39	47166	31.41	2.20268e-11
39	47316	31.51	2.16716e-11
39	47466	31.61	1.95399e-11
39	47616	31.71	1.77636e-11
39	47766	31.81	1.59872e-11
39	47916	31.91	1.45661e-11
39	48070	32.01	1.3145e-11
39	48220	32.11	1.1724e-11
39	48370	32.21	1.06581e-11
39	48520	32.31	9.59233e-12
39	48670	32.41	8.88178e-12
39	48820	32.51	7.81597e-12
39	48970	32.61	7.10543e-12
39	49120	32.71	6.39488e-12
39	49270	32.81	5.68434e-12
39	49420	32.91	5.32907e-12
39	49574	33.01	4.61853e-12
39	49724	33.11	4.26326e-12
39	49874	33.21	3.90799e-12
39	50024	33.31	3.55271e-12
39	50174	33.41	3.19744e-12
39	50324	33.51	2.84217e-12
39	50474	33.61	2.4869e-12
39	50624	33.71	2.4869e-12
39	50774	33.81	2.13163e-12
39	50924	33.91	1.77636e-12
39	51078	34.01	1.77636e-12
39	51228	34.11	1.42109e-12
39	51378	34.21	1.42109e-12
39	51528	34.31	1.42109e-12
39	51678	34.41	1.06581e-12
39	51828	34.51	1.06581e-12
39	51978	34.61	1.06581e-12
39	52128	34.71	7.10543e-13
39	52278	34.81	7.10543e-13
39	52428	34.91	7.10543e-13
39	52582	35.01	7.10543e-13
39	52732	35.11	7.10543e-13
43	25	0.21	-1.6
43	175	0.31	-1.6
43	325	0.41	-1.6
43	475	0.51	-1.6
43	625	0.61	-1.6
43	775	0.71	-1.6
43	925	0.81	-1.6
43	1075	0.91	-1.6
43	1229	1.01	-1.6
43	1380	1.11	-1.6
43	1531	1.21	-1.6
43	1682	1.31	-1.6
43	2045	1.41	1.6
43	2195	1.51	1.6
43	2345	1.61	1.6
43	2495	1.71	1.6
43	2645	1.81	1.6
43	2795	1.91	1.6
43	2949	2.01	1.6
43	3099	2.11	1.6
43	3249	2.21	1.6
43	3399	2.31	1.6
43	3549	2.41	1.6
43	3699	2.51	1.6
43	3849	2.61	1.6
43	3999	2.71	1.6
43	4149	2.81	1.6
43	4299	2.91	1.6
43	4453	3.01	1.6
43	4603	3.11	1.6
43	4753	3.21	1.6
43	4903	3.31	1.6
43	5053	3.41	1.6
43	5203	3.51	1.6
43	5353	3.61	1.6
43	5503	3.71	1.6
43	5653	3.81	1.6
43	5803	3.91	1.6
43	5957	4.01	1.6
43	6107	4.11	1.6
43	6257	4.21	1.6
43	6407	4.31	1.6
43	6557	4.41	1.6
43	6707	4.51	1.6
43	6857	4.61	1.6
43	7007	4.71	1.6
43	7157	4.81	1.6
43	7307	4.91	1.6
43	7461	5.01	1.6
43	7611	5.11	1.6
43	7761	5.21	1.6
43	7911	5.31	1.6
43	8061	5.41	1.6
43	8211	5.51	1.6
43	8361	5.61	1.6
43	8511	5.71	1.6
43	8661	5.81	1.6
43	8811	5.91	1.6
43	8965	6.01	1.6
43	9115	6.11	1.6
43	9265	6.21	1.6
43	9415	6.31	1.6
43	9565	6.41	1.6
43	9715	6.51	1.6
43	9865	6.61	1.6
43	10015	6.71	1.6
43	10165	6.81	1.6
43	10315	6.91	1.6
43	10469	7.01	1.6
43	10619	7.11	1.6
43	10769	7.21	1.6
43	10919	7.31	1.6
43	11069	7.41	1.6
43	11219	7.51	1.6
43	11369	7.61	1.6
43	11519	7.71	1.6
43	11669	7.81	1.6
43	11819	7.91	1.6
43	11973	8.01	1.6
43	12123	8.11	1.6
43	12273	8.21	1.6
43	12423	8.31	1.6
43	12573	8.41	1.6
43	12723	8.51	1.6
43	12873	8.61	1.6
43	13023	8.71	1.6
43	13173	8.81	1.6
43	13323	8.91	1.6
43	13477	9.01	1.6
43	13627	9.11	1.6
43	13777	9.21	1.6
43	13927	9.31	1.6
43	14077	9.41	1.6
43	14227	9.51	1.6
43	14377	9.61	1.6
43	14527	9.71	1.6
43	14677	9.81	1.6
43	14827	9.91	1.6
43	14981	10.01	1.6
43	15131	10.11	1.6
43	15281	10.21	1.6
43	15431	10.31	1.6
43	15581	10.41	1.6
43	15731	10.51	1.6
43	15881	10.61	1.6
43	16031	10.71	1.6
43	16181	10.81	1.6
43	16331	10.91	1.6
43	16485	11.01	1.6
43	16635	11.11	1.6
43	16785	11.21	1.6
43	16935	11.31	1.6
43	17086	11.41	-1.6
43	17236	11.51	-1.6
43	17386	11.61	-1.6
43	17536	11.71	-1.6
43	17686	11.81	-1.6
43	17836	11.91	-1.6
43	17990	12.01	-1.6
43	18140	12.11	-1.6
43	18290	12.21	-1.6
43	18440	12.31	-1.6
43	18590	12.41	-1.6
43	18740	12.51	-1.6
43	18890	12.61	-1.6
43	19040	12.71	-1.6
43	19190	12.81	-1.6
43	19340	12.91	-1.6
43	19494	13.01	-1.6
43	19644	13.11	-1.6
43	19794	13.21	-1.6
43	19944	13.31	-1.6
43	20094	13.41	-1.6
43	20244	13.51	-1.6
43	20394	13.61	-1.6
43	20544	13.71	-1.6
43	20694	13.81	-1.6
43	20844	13.91	-1.6
43	20998	14.01	-1.6
43	21148	14.11	-1.6
43	21298	14.21	-1.6
43	21448	14.31	-1.6
43	21598	14.41	-1.6
43	21748	14.51	-1.6
43	21898	14.61	-1.6
43	22048	14.71	-1.6
43	22198	14.81	-1.6
43	22348	14.91	-1.6
43	22502	15.01	-1.6
43	22652	15.11	-1.6
43	22802	15.21	-1.6
43	22952	15.31	-1.6
43	23102	15.41	-1.6
43	23252	15.51	-1.6
43	23402	15.61	-1.6
43	23552	15.71	-1.6
43	23702	15.81	-1.6
43	23852	15.91	-1.6
43	24006	16.01	-1.6
43	24156	16.11	-1.6
43	24306	16.21	-1.6
43	24456	16.31	-1.6
43	24606	16.41	-1.6
43	24756	16.51	-1.6
43	24906	16.61	-1.6
43	25056	16.71	-1.6
43	25206	16.81	-1.6
43	25356	16.91	-1.6
43	25510	17.01	-1.6
43	25660	17.11	-1.6
43	25810	17.21	-1.6
43	25960	17.31	-1.6
43	26110	17.41	-1.6
43	26260	17.51	-1.6
43	26410	17.61	-1.6
43	26560	17.71	-1.6
43	26710	17.81	-1.6
43	26860	17.91	-1.6
43	27014	18.01	-1.6
43	27164	18.11	-1.6
43	27314	18.21	-1.6
43	27464	18.31	-1.6
43	27614	18.41	-1.6
43	27764	18.51	-1.6
43	27914	18.61	-1.6
43	28064	18.71	-1.6
43	28214	18.81	-1.6
43	28364	18.91	-1.6
43	28518	19.01	-1.6
43	28668	19.11	-1.6
43	28818	19.21	-1.6
43	28968	19.31	-1.6
43	29118	19.41	-1.6
43	29268	19.51	-1.6
43	29418	19.61	-1.6
43	29568	19.71	-1.6
43	29718	19.81	-1.6
43	29868	19.91	-1.6
43	30022	20.01	-1.6
43	30172	20.11	-1.6
43	30322	20.21	-1.6
43	30472	20.31	-1.6
43	30622	20.41	-1.6
43	30772	20.51	-1.6
43	30922	20.61	-1.6
43	31072	20.71	-1.6
43	31222	20.81	-1.6
43	31372	20.91	-1.6
43	31526	21.01	-1.6
43	31676	21.11	-1.6
43	31826	21.21	-1.6
43	31976	21.31	-1.6
43	32126	21.41	-1.6
43	32276	21.51	-1.6
43	32426	21.61	-1.6
43	32576	21.71	-1.6
43	32726	21.81	-1.6
43	32876	21.91	-1.6
43	33030	22.01	-1.6
43	33180	22.11	-1.6
43	33330	22.21	-1.6
43	33480	22.31	-1.6
43	33630	22.41	-1.6
43	33780	22.51	-1.6
43	33930	22.61	-1.6
43	34080	22.71	-1.6
43	34230	22.81	-1.6
43	34380	22.91	-1.6
43	34534	23.01	-1.6
43	34684	23.11	-1.6
43	34834	23.21	-1.6
43	34984	23.31	-1.6
43	35134	23.41	-1.6
43	35284	23.51	-1.6
43	35434	23.61	-1.6
43	35584	23.71	-1.6
43	35734	23.81	-1.6
43	35884	23.91	-1.6
43	36038	24.01	-1.6
43	36188	24.11	-1.6
43	36338	24.21	-1.6
43	36488	24.31	-1.6
43	36638	24.41	-1.6
43	36788	24.51	-1.6
43	36938	24.61	-1.6
43	37088	24.71	-1.6
43	37238	24.81	-1.6
43	37388	24.91	-1.6
43	37542	25.01	-1.6
43	37692	25.11	-1.6
43	37842	25.21	-1.6
43	37992	25.31	-1.6
43	38142	25.41	-1.6
43	38292	25.51	-1.6
43	38442	25.61	-1.6
43	38592	25.71	-1.6
43	38742	25.81	-1.6
43	38892	25.91	-1.6
43	39046	26.01	-1.6
43	39196	26.11	-1.6
43	39346	26.21	-1.6
43	39496	26.31	-1.6
43	39646	26.41	-1.6
43	39796	26.51	-1.6
43	39946	26.61	-1.6
43	40096	26.71	-1.6
43	40246	26.81	-1.6
43	40396	26.91	-1.6
43	40550	27.01	-1.6
43	40700	27.11	-1.6
43	40850	27.21	-1.6
43	41000	27.31	-1.6
43	41150	27.41	-1.6
43	41300	27.51	-1.6
43	41450	27.61	-1.6
43	41600	27.71	-1.6
43	41750	27.81	-1.6
43	41900	27.91	-1.6
43	42054	28.01	-1.6
43	42204	28.11	-1.6
43	42354	28.21	-1.6
43	42504	28.31	-1.6
43	42654	28.41	-1.6
43	42804	28.51	-1.6
43	42954	28.61	-1.6
43	43104	28.71	-1.6
43	43254	28.81	-1.6
43	43404	28.91	-1.6
43	43558	29.01	-1.6
43	43708	29.11	-1.6
43	43858	29.21	-1.6
43	44008	29.31	-1.6
43	44158	29.41	-1.6
43	44308	29.51	-1.6
43	44458	29.61	-1.6
43	44608	29.71	-1.6
43	44758	29.81	-1.6
43	44908	29.91	-1.6
43	45062	30.01	-1.6
43	45212	30.11	-1.6
43	45362	30.21	-1.6
43	45512	30.31	-1.6
43	45662	30.41	-1.6
43	45812	30.51	-1.6
43	45962	30.61	-1.6
43	46112	30.71	-1.6
43	46262	30.81	-1.6
43	46412	30.91	-1.6
43	46566	31.01	-1.6
43	46716	31.11	-1.6
43	46866	31.21	-1.6
43	47016	31.31	-1.6
43	47166	31.41	-1.6
43	47316	31.51	-1.6
43	47466	31.61	-1.6
43	47616	31.71	-1.6
43	47766	31.81	-1.6
43	47916	31.91	-1.6
43	48070	32.01	-1.6
43	48220	32.11	-1.6
43	48370	32.21	-1.6
43	48520	32.31	-1.6
43	48670	32.41	-1.6
43	48820	32.51	-1.6
43	48970	32.61	-1.6
43	49120	32.71	-1.6
43	49270	32.81	-1.6
43	49420	32.91	-1.6
43	49574	33.01	-1.6
43	49724	33.11	-1.6
43	49874	33.21	-1.6
43	50024	33.31	-1.6
43	50174	33.41	-1.6
43	50324	33.51	-1.6
43	50474	33.61	-1.6
43	50624	33.71	-1.6
43	50774	33.81	-1.6
43	50924	33.91	-1.6
43	51078	34.01	-1.6
43	51228	34.11	-1.6
43	51378	34.21	-1.6
43	51528	34.31	-1.6
43	51678	34.41	-1.6
43	51828	34.51	-1.6
43	51978	34.61	-1.6
43	52128	34.71	-1.6
43	52278	34.81	-1.6
43	52428	34.91	-1.6
43	52582	35.01	-1.6
43	52732	35.11	-1.6
42	25	0.21	52.4982
42	175	0.31	55.262
42	325	0.41	58.0025
42	475	0.51	60.711
42	625	0.61	63.3808
42	775	0.71	66.0067
42	925	0.81	68.585
42	1075	0.91	71.1132
42	1229	1.01	73.5902
42	1380	1.11	76.0154
42	1531	1.21	78.3893
42	1682	1.31	80.7129
42	2045	1.41	82.988
42	2195	1.51	85.2208
42	2345	1.61	87.4214
42	2495	1.71	89.5982
42	2645	1.81	91.7583
42	2795	1.91	93.9072
42	2949	2.01	96.0498
42	3099	2.11	98.1899
42	3249	2.21	100.33
42	3399	2.31	102.474
42	3549	2.41	104.623
42	3699	2.51	106.78
42	3849	2.61	108.944
42	3999	2.71	111.119
42	4149	2.81	113.304
42	4299	2.91	115.5
42	4453	3.01	117.708
42	4603	3.11	119.929
42	4753	3.21	122.163
42	4903	3.31	124.411
42	5053	3.41	126.672
42	5203	3.51	128.947
42	5353	3.61	131.236
42	5503	3.71	133.539
42	5653	3.81	135.857
42	5803	3.91	138.189
42	5957	4.01	140.536
42	6107	4.11	142.897
42	6257	4.21	145.273
42	6407	4.31	147.664
42	6557	4.41	150.07
42	6707	4.51	152.491
42	6857	4.61	154.926
42	7007	4.71	157.376
42	7157	4.81	159.842
42	7307	4.91	162.322
42	7461	5.01	164.817
42	7611	5.11	167.327
42	7761	5.21	169.852
42	7911	5.31	172.392
42	8061	5.41	174.947
42	8211	5.51	177.517
42	8361	5.61	180.102
42	8511	5.71	182.702
42	8661	5.81	185.317
42	8811	5.91	187.947
42	8965	6.01	190.592
42	9115	6.11	193.252
42	9265	6.21	195.925
42	9415	6.31	198.612
42	9565	6.41	201.312
42	9715	6.51	204.023
42	9865	6.61	206.746
42	10015	6.71	209.478
42	10165	6.81	212.219
42	10315	6.91	214.968
42	10469	7.01	217.725
42	10619	7.11	220.487
42	10769	7.21	223.255
42	10919	7.31	226.027
42	11069	7.41	228.803
42	11219	7.51	231.583
42	11369	7.61	234.365
42	11519	7.71	237.149
42	11669	7.81	239.934
42	11819	7.91	242.721
42	11973	8.01	245.508
42	12123	8.11	248.296
42	12273	8.21	251.084
42	12423	8.31	253.872
42	12573	8.41	256.66
42	12723	8.51	259.448
42	12873	8.61	262.235
42	13023	8.71	265.022
42	13173	8.81	267.808
42	13323	8.91	270.593
42	13477	9.01	273.378
42	13627	9.11	276.162
42	13777	9.21	278.945
42	13927	9.31	281.728
42	14077	9.41	284.51
42	14227	9.51	287.291
42	14377	9.61	290.072
42	14527	9.71	292.852
42	14677	9.81	295.632
42	14827	9.91	298.412
42	14981	10.01	301.191
42	15131	10.11	303.97
42	15281	10.21	306.749
42	15431	10.31	309.527
42	15581	10.41	312.305
42	15731	10.51	315.083
42	15881	10.61	317.861
42	16031	10.71	320.638
42	16181	10.81	323.416
42	16331	10.91	326.193
42	16485	11.01	328.971
42	16635	11.11	331.748
42	16785	11.21	334.526
42	16935	11.31	337.303
42	17086	11.41	340.08
42	17236	11.51	342.857
42	17386	11.61	345.635
42	17536	11.71	348.412
42	17686	11.81	351.19
42	17836	11.91	353.967
42	17990	12.01	356.744
42	18140	12.11	359.522
42	18290	12.21	362.299
42	18440	12.31	365.077
42	18590	12.41	367.854
42	18740	12.51	370.632
42	18890	12.61	373.41
42	19040	12.71	376.187
42	19190	12.81	378.965
42	19340	12.91	381.743
42	19494	13.01	384.52
42	19644	13.11	387.298
42	19794	13.21	390.076
42	19944	13.31	392.853
42	20094	13.41	395.631
42	20244	13.51	398.409
42	20394	13.61	401.187
42	20544	13.71	403.964
42	20694	13.81	406.742
42	20844	13.91	409.52
42	20998	14.01	412.298
42	21148	14.11	415.076
42	21298	14.21	417.853
42	21448	14.31	420.631
42	21598	14.41	423.409
42	21748	14.51	426.187
42	21898	14.61	428.965
42	22048	14.71	431.742
42	22198	14.81	434.52
42	22348	14.91	437.298
42	22502	15.01	440.076
42	22652	15.11	442.854
42	22802	15.21	445.631
42	22952	15.31	448.409
42	23102	15.41	451.187
42	23252	15.51	453.965
42	23402	15.61	456.743
42	23552	15.71	459.52
42	23702	15.81	462.298
42	23852	15.91	465.076
42	24006	16.01	467.854
42	24156	16.11	470.632
42	24306	16.21	473.409
42	24456	16.31	476.187
42	24606	16.41	478.965
42	24756	16.51	481.743
42	24906	16.61	484.52
42	25056	16.71	487.298
42	25206	16.81	490.076
42	25356	16.91	492.854
42	25510	17.01	495.632
42	25660	17.11	498.409
42	25810	17.21	501.187
42	25960	17.31	503.965
42	26110	17.41	506.743
42	26260	17.51	509.52
42	26410	17.61	512.298
42	26560	17.71	515.076
42	26710	17.81	517.854
42	26860	17.91	520.632
42	27014	18.01	523.409
42	27164	18.11	526.187
42	27314	18.21	528.965
42	27464	18.31	531.743
42	27614	18.41	534.52
42	27764	18.51	537.298
42	27914	18.61	540.076
42	28064	18.71	542.854
42	28214	18.81	545.632
42	28364	18.91	548.409
42	28518	19.01	551.187
42	28668	19.11	553.965
42	28818	19.21	556.743
42	28968	19.31	559.52
42	29118	19.41	562.298
42	29268	19.51	565.076
42	29418	19.61	567.854
42	29568	19.71	570.632
42	29718	19.81	573.409
42	29868	19.91	576.187
42	30022	20.01	578.965
42	30172	20.11	581.743
42	30322	20.21	584.52
42	30472	20.31	587.298
42	30622	20.41	590.076
42	30772	20.51	592.854
42	30922	20.61	595.632
42	31072	20.71	598.409
42	31222	20.81	601.187
42	31372	20.91	603.965
42	31526	21.01	606.743
42	31676	21.11	609.521
42	31826	21.21	612.298
42	31976	21.31	615.076
42	32126	21.41	617.854
42	32276	21.51	620.632
42	32426	21.61	623.409
42	32576	21.71	626.187
42	32726	21.81	628.965
42	32876	21.91	631.743
42	33030	22.01	634.521
42	33180	22.11	637.298
42	33330	22.21	640.076
42	33480	22.31	642.854
42	33630	22.41	645.632
42	33780	22.51	648.409
42	33930	22.61	651.187
42	34080	22.71	653.965
42	34230	22.81	656.743
42	34380	22.91	659.521
42	34534	23.01	662.298
42	34684	23.11	665.076
42	34834	23.21	667.854
42	34984	23.31	670.632
42	35134	23.41	673.409
42	35284	23.51	676.187
42	35434	23.61	678.965
42	35584	23.71	681.743
42	35734	23.81	684.521
42	35884	23.91	687.298
42	36038	24.01	690.076
42	36188	24.11	692.854
42	36338	24.21	695.632
42	36488	24.31	698.409
42	36638	24.41	701.187
42	36788	24.51	703.965
42	36938	24.61	706.743
42	37088	24.71	709.521
42	37238	24.81	712.298
42	37388	24.91	715.076
42	37542	25.01	717.854
42	37692	25.11	720.632
42	37842	25.21	723.409
42	37992	25.31	726.187
42	38142	25.41	728.965
42	38292	25.51	731.743
42	38442	25.61	734.521
42	38592	25.71	737.298
42	38742	25.81	740.076
42	38892	25.91	742.854
42	39046	26.01	745.632
42	39196	26.11	748.41
42	39346	26.21	751.187
42	39496	26.31	753.965
42	39646	26.41	756.743
42	39796	26.51	759.521
42	39946	26.61	762.298
42	40096	26.71	765.076
42	40246	26.81	767.854
42	40396	26.91	770.632
42	40550	27.01	773.41
42	40700	27.11	776.187
42	40850	27.21	778.965
42	41000	27.31	781.743
42	41150	27.41	784.521
42	41300	27.51	787.298
42	41450	27.61	790.076
42	41600	27.71	792.854
42	41750	27.81	795.632
42	41900	27.91	798.41
42	42054	28.01	801.187
42	42204	28.11	803.965
42	42354	28.21	806.743
42	42504	28.31	809.521
42	42654	28.41	812.298
42	42804	28.51	815.076
42	42954	28.61	817.854
42	43104	28.71	820.632
42	43254	28.81	823.41
42	43404	28.91	826.187
42	43558	29.01	828.965
42	43708	29.11	831.743
42	43858	29.21	834.521
42	44008	29.31	837.298
42	44158	29.41	840.076
42	44308	29.51	842.854
42	44458	29.61	845.632
42	44608	29.71	848.41
42	44758	29.81	851.187
42	44908	29.91	853.965
42	45062	30.01	856.743
42	45212	30.11	859.521
42	45362	30.21	862.298
42	45512	30.31	865.076
42	45662	30.41	867.854
42	45812	30.51	870.632
42	45962	30.61	873.41
42	46112	30.71	876.187
42	46262	30.81	878.965
42	46412	30.91	881.743
42	46566	31.01	884.521
42	46716	31.11	887.299
42	46866	31.21	890.076
42	47016	31.31	892.854
42	47166	31.41	895.632
42	47316	31.51	898.41
42	47466	31.61	901.187
42	47616	31.71	903.965
42	47766	31.81	906.743
42	47916	31.91	909.521
42	48070	32.01	912.299
42	48220	32.11	915.076
42	48370	32.21	917.854
42	48520	32.31	920.632
42	48670	32.41	923.41
42	48820	32.51	926.187
42	48970	32.61	928.965
42	49120	32.71	931.743
42	49270	32.81	934.521
42	49420	32.91	937.299
42	49574	33.01	940.076
42	49724	33.11	942.854
42	49874	33.21	945.632
42	50024	33.31	948.41
42	50174	33.41	951.187
42	50324	33.51	953.965
42	50474	33.61	956.743
42	50624	33.71	959.521
42	50774	33.81	962.299
42	50924	33.91	965.076
42	51078	34.01	967.854
42	51228	34.11	970.632
42	51378	34.21	973.41
42	51528	34.31	976.187
42	51678	34.41	978.965
42	51828	34.51	981.743
42	51978	34.61	984.521
42	52128	34.71	987.299
42	52278	34.81	990.076
42	52428	34.91	992.854
42	52582	35.01	995.632
42	52732	35.11	998.41
41	25	0.21	27.7189
41	175	0.31	27.5375
41	325	0.41	27.2584
41	475	0.51	26.9018
41	625	0.61	26.4857
41	775	0.71	26.0257
41	925	0.81	25.5356
41	1075	0.91	25.0272
41	1229	1.01	24.5107
41	1380	1.11	23.9945
41	1531	1.21	23.4857
41	1682	1.31	22.9899
41	2045	1.41	22.5218
41	2195	1.51	22.1512
41	2345	1.61	21.8742
41	2495	1.71	21.6738
41	2645	1.81	21.5365
41	2795	1.91	21.4507
41	2949	2.01	21.4073
41	3099	2.11	21.3986
41	3249	2.21	21.4185
41	3399	2.31	21.4617
41	3549	2.41	21.5241
41	3699	2.51	21.6023
41	3849	2.61	21.6933
41	3999	2.71	21.795
41	4149	2.81	21.9053
41	4299	2.91	22.0227
41	4453	3.01	22.146
41	4603	3.11	22.2741
41	4753	3.21	22.4062
41	4903	3.31	22.5414
41	5053	3.41	22.6793
41	5203	3.51	22.8194
41	5353	3.61	22.9613
41	5503	3.71	23.1046
41	5653	3.81	23.2491
41	5803	3.91	23.3947
41	5957	4.01	23.541
41	6107	4.11	23.6879
41	6257	4.21	23.8355
41	6407	4.31	23.9834
41	6557	4.41	24.1318
41	6707	4.51	24.2804
41	6857	4.61	24.4293
41	7007	4.71	24.5783
41	7157	4.81	24.7276
41	7307	4.91	24.877
41	7461	5.01	25.0265
41	7611	5.11	25.176
41	7761	5.21	25.3257
41	7911	5.31	25.4754
41	8061	5.41	25.6252
41	8211	5.51	25.775
41	8361	5.61	25.9248
41	8511	5.71	26.0747
41	8661	5.81	26.2246
41	8811	5.91	26.3744
41	8965	6.01	26.5224
41	9115	6.11	26.6664
41	9265	6.21	26.8044
41	9415	6.31	26.9351
41	9565	6.41	27.0574
41	9715	6.51	27.1707
41	9865	6.61	27.2745
41	10015	6.71	27.3687
41	10165	6.81	27.4533
41	10315	6.91	27.5285
41	10469	7.01	27.5947
41	10619	7.11	27.6523
41	10769	7.21	27.7018
41	10919	7.31	27.7437
41	11069	7.41	27.7787
41	11219	7.51	27.8075
41	11369	7.61	27.8305
41	11519	7.71	27.8484
41	11669	7.81	27.8619
41	11819	7.91	27.8714
41	11973	8.01	27.8776
41	12123	8.11	27.8808
41	12273	8.21	27.8816
41	12423	8.31	27.8804
41	12573	8.41	27.8776
41	12723	8.51	27.8735
41	12873	8.61	27.8684
41	13023	8.71	27.8626
41	13173	8.81	27.8564
41	13323	8.91	27.8498
41	13477	9.01	27.8431
41	13627	9.11	27.8365
41	13777	9.21	27.83
41	13927	9.31	27.8237
41	14077	9.41	27.8177
41	14227	9.51	27.8121
41	14377	9.61	27.8069
41	14527	9.71	27.8021
41	14677	9.81	27.7977
41	14827	9.91	27.7938
41	14981	10.01	27.7903
41	15131	10.11	27.7871
41	15281	10.21	27.7844
41	15431	10.31	27.7821
41	15581	10.41	27.7801
41	15731	10.51	27.7784
41	15881	10.61	27.777
41	16031	10.71	27.7759
41	16181	10.81	27.775
41	16331	10.91	27.7743
41	16485	11.01	27.7738
41	16635	11.11	27.7735
41	16785	11.21	27.7733
41	16935	11.31	27.7732
41	17086	11.41	27.7732
41	17236	11.51	27.7733
41	17386	11.61	27.7735
41	17536	11.71	27.7737
41	17686	11.81	27.7739
41	17836	11.91	27.7742
41	17990	12.01	27.7745
41	18140	12.11	27.7748
41	18290	12.21	27.7751
41	18440	12.31	27.7754
41	18590	12.41	27.7756
41	18740	12.51	27.7759
41	18890	12.61	27.7762
41	19040	12.71	27.7764
41	19190	12.81	27.7766
41	19340	12.91	27.7768
41	19494	13.01	27.777
41	19644	13.11	27.7772
41	19794	13.21	27.7773
41	19944	13.31	27.7775
41	20094	13.41	27.7776
41	20244	13.51	27.7777
41	20394	13.61	27.7777
41	20544	13.71	27.7778
41	20694	13.81	27.7779
41	20844	13.91	27.7779
41	20998	14.01	27.7779
41	21148	14.11	27.778
41	21298	14.21	27.778
41	21448	14.31	27.778
41	21598	14.41	27.778
41	21748	14.51	27.778
41	21898	14.61	27.778
41	22048	14.71	27.778
41	22198	14.81	27.778
41	22348	14.91	27.778
41	22502	15.01	27.778
41	22652	15.11	27.778
41	22802	15.21	27.7779
41	22952	15.31	27.7779
41	23102	15.41	27.7779
41	23252	15.51	27.7779
41	23402	15.61	27.7779
41	23552	15.71	27.7779
41	23702	15.81	27.7779
41	23852	15.91	27.7779
41	24006	16.01	27.7778
41	24156	16.11	27.7778
41	24306	16.21	27.7778
41	24456	16.31	27.7778
41	24606	16.41	27.7778
41	24756	16.51	27.7778
41	24906	16.61	27.7778
41	25056	16.71	27.7778
41	25206	16.81	27.7778
41	25356	16.91	27.7778
41	25510	17.01	27.7778
41	25660	17.11	27.7778
41	25810	17.21	27.7778
41	25960	17.31	27.7778
41	26110	17.41	27.7778
41	26260	17.51	27.7778
41	26410	17.61	27.7778
41	26560	17.71	27.7778
41	26710	17.81	27.7778
41	26860	17.91	27.7778
41	27014	18.01	27.7778
41	27164	18.11	27.7778
41	27314	18.21	27.7778
41	27464	18.31	27.7778
41	27614	18.41	27.7778
41	27764	18.51	27.7778
41	27914	18.61	27.7778
41	28064	18.71	27.7778
41	28214	18.81	27.7778
41	28364	18.91	27.7778
41	28518	19.01	27.7778
41	28668	19.11	27.7778
41	28818	19.21	27.7778
41	28968	19.31	27.7778
41	29118	19.41	27.7778
41	29268	19.51	27.7778
41	29418	19.61	27.7778
41	29568	19.71	27.7778
41	29718	19.81	27.7778
41	29868	19.91	27.7778
41	30022	20.01	27.7778
41	30172	20.11	27.7778
41	30322	20.21	27.7778
41	30472	20.31	27.7778
41	30622	20.41	27.7778
41	30772	20.51	27.7778
41	30922	20.61	27.7778
41	31072	20.71	27.7778
41	31222	20.81	27.7778
41	31372	20.91	27.7778
41	31526	21.01	27.7778
41	31676	21.11	27.7778
41	31826	21.21	27.7778
41	31976	21.31	27.7778
41	32126	21.41	27.7778
41	32276	21.51	27.7778
41	32426	21.61	27.7778
41	32576	21.71	27.7778
41	32726	21.81	27.7778
41	32876	21.91	27.7778
41	33030	22.01	27.7778
41	33180	22.11	27.7778
41	33330	22.21	27.7778
41	33480	22.31	27.7778
41	33630	22.41	27.7778
41	33780	22.51	27.7778
41	33930	22.61	27.7778
41	34080	22.71	27.7778
41	34230	22.81	27.7778
41	34380	22.91	27.7778
41	34534	23.01	27.7778
41	34684	23.11	27.7778
41	34834	23.21	27.7778
41	34984	23.31	27.7778
41	35134	23.41	27.7778
41	35284	23.51	27.7778
41	35434	23.61	27.7778
41	35584	23.71	27.7778
41	35734	23.81	27.7778
41	35884	23.91	27.7778
41	36038	24.01	27.7778
41	36188	24.11	27.7778
41	36338	24.21	27.7778
41	36488	24.31	27.7778
41	36638	24.41	27.7778
41	36788	24.51	27.7778
41	36938	24.61	27.7778
41	37088	24.71	27.7778
41	37238	24.81	27.7778
41	37388	24.91	27.7778
41	37542	25.01	27.7778
41	37692	25.11	27.7778
41	37842	25.21	27.7778
41	37992	25.31	27.7778
41	38142	25.41	27.7778
41	38292	25.51	27.7778
41	38442	25.61	27.7778
41	38592	25.71	27.7778
41	38742	25.81	27.7778
41	38892	25.91	27.7778
41	39046	26.01	27.7778
41	39196	26.11	27.7778
41	39346	26.21	27.7778
41	39496	26.31	27.7778
41	39646	26.41	27.7778
41	39796	26.51	27.7778
41	39946	26.61	27.7778
41	40096	26.71	27.7778
41	40246	26.81	27.7778
41	40396	26.91	27.7778
41	40550	27.01	27.7778
41	40700	27.11	27.7778
41	40850	27.21	27.7778
41	41000	27.31	27.7778
41	41150	27.41	27.7778
41	41300	27.51	27.7778
41	41450	27.61	27.7778
41	41600	27.71	27.7778
41	41750	27.81	27.7778
41	41900	27.91	27.7778
41	42054	28.01	27.7778
41	42204	28.11	27.7778
41	42354	28.21	27.7778
41	42504	28.31	27.7778
41	42654	28.41	27.7778
41	42804	28.51	27.7778
41	42954	28.61	27.7778
41	43104	28.71	27.7778
41	43254	28.81	27.7778
41	43404	28.91	27.7778
41	43558	29.01	27.7778
41	43708	29.11	27.7778
41	43858	29.21	27.7778
41	44008	29.31	27.7778
41	44158	29.41	27.7778
41	44308	29.51	27.7778
41	44458	29.61	27.7778
41	44608	29.71	27.7778
41	44758	29.81	27.7778
41	44908	29.91	27.7778
41	45062	30.01	27.7778
41	45212	30.11	27.7778
41	45362	30.21	27.7778
41	45512	30.31	27.7778
41	45662	30.41	27.7778
41	45812	30.51	27.7778
41	45962	30.61	27.7778
41	46112	30.71	27.7778
41	46262	30.81	27.7778
41	46412	30.91	27.7778
41	46566	31.01	27.7778
41	46716	31.11	27.7778
41	46866	31.21	27.7778
41	47016	31.31	27.7778
41	47166	31.41	27.7778
41	47316	31.51	27.7778
41	47466	31.61	27.7778
41	47616	31.71	27.7778
41	47766	31.81	27.7778
41	47916	31.91	27.7778
41	48070	32.01	27.7778
41	48220	32.11	27.7778
41	48370	32.21	27.7778
41	48520	32.31	27.7778
41	48670	32.41	27.7778
41	48820	32.51	27.7778
41	48970	32.61	27.7778
41	49120	32.71	27.7778
41	49270	32.81	27.7778
41	49420	32.91	27.7778
41	49574	33.01	27.7778
41	49724	33.11	27.7778
41	49874	33.21	27.7778
41	50024	33.31	27.7778
41	50174	33.41	27.7778
41	50324	33.51	27.7778
41	50474	33.61	27.7778
41	50624	33.71	27.7778
41	50774	33.81	27.7778
41	50924	33.91	27.7778
41	51078	34.01	27.7778
41	51228	34.11	27.7778
41	51378	34.21	27.7778
41	51528	34.31	27.7778
41	51678	34.41	27.7778
41	51828	34.51	27.7778
41	51978	34.61	27.7778
41	52128	34.71	27.7778
41	52278	34.81	27.7778
41	52428	34.91	27.7778
41	52582	35.01	27.7778
41	52732	35.11	27.7778
37	25	0.21	-13.8289
37	175	0.31	-13.6475
37	325	0.41	-13.3685
37	475	0.51	-13.0119
37	625	0.61	-12.5958
37	775	0.71	-12.1358
37	925	0.81	-11.6458
37	1075	0.91	-11.1375
37	1229	1.01	-10.6211
37	1380	1.11	-10.1049
37	1531	1.21	-9.59616
37	1682	1.31	-9.10045
37	2045	1.41	0
37	2195	1.51	0
37	2345	1.61	0
37	2495	1.71	0
37	2645	1.81	0
37	2795	1.91	0
37	2949	2.01	0
37	3099	2.11	0
37	3249	2.21	0
37	3399	2.31	0
37	3549	2.41	0
37	3699	2.51	0
37	3849	2.61	0
37	3999	2.71	0
37	4149	2.81	0
37	4299	2.91	0
37	4453	3.01	0
37	4603	3.11	0
37	4753	3.21	0
37	4903	3.31	0
37	5053	3.41	0
37	5203	3.51	0
37	5353	3.61	0
37	5503	3.71	0
37	5653	3.81	0
37	5803	3.91	0
37	5957	4.01	0
37	6107	4.11	0
37	6257	4.21	0
37	6407	4.31	0
37	6557	4.41	0
37	6707	4.51	0
37	6857	4.61	0
37	7007	4.71	0
37	7157	4.81	0
37	7307	4.91	0
37	7461	5.01	0
37	7611	5.11	0
37	7761	5.21	0
37	7911	5.31	0
37	8061	5.41	0
37	8211	5.51	0
37	8361	5.61	0
37	8511	5.71	0
37	8661	5.81	0
37	8811	5.91	0
37	8965	6.01	0
37	9115	6.11	0
37	9265	6.21	0
37	9415	6.31	0
37	9565	6.41	0
37	9715	6.51	0
37	9865	6.61	0
37	10015	6.71	0
37	10165	6.81	0
37	10315	6.91	0
37	10469	7.01	0
37	10619	7.11	0
37	10769	7.21	0
37	10919	7.31	0
37	11069	7.41	0
37	11219	7.51	0
37	11369	7.61	0
37	11519	7.71	0
37	11669	7.81	0
37	11819	7.91	0
37	11973	8.01	0
37	12123	8.11	0
37	12273	8.21	0
37	12423	8.31	0
37	12573	8.41	0
37	12723	8.51	0
37	12873	8.61	0
37	13023	8.71	0
37	13173	8.81	0
37	13323	8.91	0
37	13477	9.01	0
37	13627	9.11	0
37	13777	9.21	0
37	13927	9.31	0
37	14077	9.41	0
37	14227	9.51	0
37	14377	9.61	0
37	14527	9.71	0
37	14677	9.81	0
37	14827	9.91	0
37	14981	10.01	0
37	15131	10.11	0
37	15281	10.21	0
37	15431	10.31	0
37	15581	10.41	0
37	15731	10.51	0
37	15881	10.61	0
37	16031	10.71	0
37	16181	10.81	0
37	16331	10.91	0
37	16485	11.01	0
37	16635	11.11	0
37	16785	11.21	0
37	16935	11.31	0
37	17086	11.41	0
37	17236	11.51	0
37	17386	11.61	0
37	17536	11.71	0
37	17686	11.81	0
37	17836	11.91	0
37	17990	12.01	0
37	18140	12.11	0
37	18290	12.21	0
37	18440	12.31	0
37	18590	12.41	0
37	18740	12.51	0
37	18890	12.61	0
37	19040	12.71	0
37	19190	12.81	0
37	19340	12.91	0
37	19494	13.01	0
37	19644	13.11	0
37	19794	13.21	0
37	19944	13.31	0
37	20094	13.41	0
37	20244	13.51	0
37	20394	13.61	0
37	20544	13.71	0
37	20694	13.81	0
37	20844	13.91	0
37	20998	14.01	0
37	21148	14.11	0
37	21298	14.21	0
37	21448	14.31	0
37	21598	14.41	0
37	21748	14.51	0
37	21898	14.61	0
37	22048	14.71	0
37	22198	14.81	0
37	22348	14.91	0
37	22502	15.01	0
37	22652	15.11	0
37	22802	15.21	0
37	22952	15.31	0
37	23102	15.41	0
37	23252	15.51	0
37	23402	15.61	0
37	23552	15.71	0
37	23702	15.81	0
37	23852	15.91	0
37	24006	16.01	0
37	24156	16.11	0
37	24306	16.21	0
37	24456	16.31	0
37	24606	16.41	0
37	24756	16.51	0
37	24906	16.61	0
37	25056	16.71	0
37	25206	16.81	0
37	25356	16.91	0
37	25510	17.01	0
37	25660	17.11	0
37	25810	17.21	0
37	25960	17.31	0
37	26110	17.41	0
37	26260	17.51	0
37	26410	17.61	0
37	26560	17.71	0
37	26710	17.81	0
37	26860	17.91	0
37	27014	18.01	0
37	27164	18.11	0
37	27314	18.21	0
37	27464	18.31	0
37	27614	18.41	0
37	27764	18.51	0
37	27914	18.61	0
37	28064	18.71	0
37	28214	18.81	0
37	28364	18.91	0
37	28518	19.01	0
37	28668	19.11	0
37	28818	19.21	0
37	28968	19.31	0
37	29118	19.41	0
37	29268	19.51	0
37	29418	19.61	0
37	29568	19.71	0
37	29718	19.81	0
37	29868	19.91	0
37	30022	20.01	0
37	30172	20.11	0
37	30322	20.21	0
37	30472	20.31	0
37	30622	20.41	0
37	30772	20.51	0
37	30922	20.61	0
37	31072	20.71	0
37	31222	20.81	0
37	31372	20.91	0
37	31526	21.01	0
37	31676	21.11	0
37	31826	21.21	0
37	31976	21.31	0
37	32126	21.41	0
37	32276	21.51	0
37	32426	21.61	0
37	32576	21.71	0
37	32726	21.81	0
37	32876	21.91	0
37	33030	22.01	0
37	33180	22.11	0
37	33330	22.21	0
37	33480	22.31	0
37	33630	22.41	0
37	33780	22.51	0
37	33930	22.61	0
37	34080	22.71	0
37	34230	22.81	0
37	34380	22.91	0
37	34534	23.01	0
37	34684	23.11	0
37	34834	23.21	0
37	34984	23.31	0
37	35134	23.41	0
37	35284	23.51	0
37	35434	23.61	0
37	35584	23.71	0
37	35734	23.81	0
37	35884	23.91	0
37	36038	24.01	0
37	36188	24.11	0
37	36338	24.21	0
37	36488	24.31	0
37	36638	24.41	0
37	36788	24.51	0
37	36938	24.61	0
37	37088	24.71	0
37	37238	24.81	0
37	37388	24.91	0
37	37542	25.01	0
37	37692	25.11	0
37	37842	25.21	0
37	37992	25.31	0
37	38142	25.41	0
37	38292	25.51	0
37	38442	25.61	0
37	38592	25.71	0
37	38742	25.81	0
37	38892	25.91	0
37	39046	26.01	0
37	39196	26.11	0
37	39346	26.21	0
37	39496	26.31	0
37	39646	26.41	0
37	39796	26.51	0
37	39946	26.61	0
37	40096	26.71	0
37	40246	26.81	0
37	40396	26.91	0
37	40550	27.01	0
37	40700	27.11	0
37	40850	27.21	0
37	41000	27.31	0
37	41150	27.41	0
37	41300	27.51	0
37	41450	27.61	0
37	41600	27.71	0
37	41750	27.81	0
37	41900	27.91	0
37	42054	28.01	0
37	42204	28.11	0
37	42354	28.21	0
37	42504	28.31	0
37	42654	28.41	0
37	42804	28.51	0
37	42954	28.61	0
37	43104	28.71	0
37	43254	28.81	0
37	43404	28.91	0
37	43558	29.01	0
37	43708	29.11	0
37	43858	29.21	0
37	44008	29.31	0
37	44158	29.41	0
37	44308	29.51	0
37	44458	29.61	0
37	44608	29.71	0
37	44758	29.81	0
37	44908	29.91	0
37	45062	30.01	0
37	45212	30.11	0
37	45362	30.21	0
37	45512	30.31	0
37	45662	30.41	0
37	45812	30.51	0
37	45962	30.61	0
37	46112	30.71	0
37	46262	30.81	0
37	46412	30.91	0
37	46566	31.01	0
37	46716	31.11	0
37	46866	31.21	0
37	47016	31.31	0
37	47166	31.41	0
37	47316	31.51	0
37	47466	31.61	0
37	47616	31.71	0
37	47766	31.81	0
37	47916	31.91	0
37	48070	32.01	0
37	48220	32.11	0
37	48370	32.21	0
37	48520	32.31	0
37	48670	32.41	0
37	48820	32.51	0
37	48970	32.61	0
37	49120	32.71	0
37	49270	32.81	0
37	49420	32.91	0
37	49574	33.01	0
37	49724	33.11	0
37	49874	33.21	0
37	50024	33.31	0
37	50174	33.41	0
37	50324	33.51	0
37	50474	33.61	0
37	50624	33.71	0
37	50774	33.81	0
37	50924	33.91	0
37	51078	34.01	0
37	51228	34.11	0
37	51378	34.21	0
37	51528	34.31	0
37	51678	34.41	0
37	51828	34.51	0
37	51978	34.61	0
37	52128	34.71	0
37	52278	34.81	0
37	52428	34.91	0
37	52582	35.01	0
37	52732	35.11	0
36	25	0.21	85.7519
36	175	0.31	84.3771
36	325	0.41	83.0256
36	475	0.51	81.706
36	625	0.61	80.4252
36	775	0.71	79.1884
36	925	0.81	77.9991
36	1075	0.91	76.8598
36	1229	1.01	75.7718
36	1380	1.11	74.7356
36	1531	1.21	73.7506
36	1682	1.31	72.8159
36	2045	1.41	-1
36	2195	1.51	-1
36	2345	1.61	-1
36	2495	1.71	-1
36	2645	1.81	-1
36	2795	1.91	-1
36	2949	2.01	-1
36	3099	2.11	-1
36	3249	2.21	-1
36	3399	2.31	-1
36	3549	2.41	-1
36	3699	2.51	-1
36	3849	2.61	-1
36	3999	2.71	-1
36	4149	2.81	-1
36	4299	2.91	-1
36	4453	3.01	-1
36	4603	3.11	-1
36	4753	3.21	-1
36	4903	3.31	-1
36	5053	3.41	-1
36	5203	3.51	-1
36	5353	3.61	-1
36	5503	3.71	-1
36	5653	3.81	-1
36	5803	3.91	-1
36	5957	4.01	-1
36	6107	4.11	-1
36	6257	4.21	-1
36	6407	4.31	-1
36	6557	4.41	-1
36	6707	4.51	-1
36	6857	4.61	-1
36	7007	4.71	-1
36	7157	4.81	-1
36	7307	4.91	-1
36	7461	5.01	-1
36	7611	5.11	-1
36	7761	5.21	-1
36	7911	5.31	-1
36	8061	5.41	-1
36	8211	5.51	-1
36	8361	5.61	-1
36	8511	5.71	-1
36	8661	5.81	-1
36	8811	5.91	-1
36	8965	6.01	-1
36	9115	6.11	-1
36	9265	6.21	-1
36	9415	6.31	-1
36	9565	6.41	-1
36	9715	6.51	-1
36	9865	6.61	-1
36	10015	6.71	-1
36	10165	6.81	-1
36	10315	6.91	-1
36	10469	7.01	-1
36	10619	7.11	-1
36	10769	7.21	-1
36	10919	7.31	-1
36	11069	7.41	-1
36	11219	7.51	-1
36	11369	7.61	-1
36	11519	7.71	-1
36	11669	7.81	-1
36	11819	7.91	-1
36	11973	8.01	-1
36	12123	8.11	-1
36	12273	8.21	-1
36	12423	8.31	-1
36	12573	8.41	-1
36	12723	8.51	-1
36	12873	8.61	-1
36	13023	8.71	-1
36	13173	8.81	-1
36	13323	8.91	-1
36	13477	9.01	-1
36	13627	9.11	-1
36	13777	9.21	-1
36	13927	9.31	-1
36	14077	9.41	-1
36	14227	9.51	-1
36	14377	9.61	-1
36	14527	9.71	-1
36	14677	9.81	-1
36	14827	9.91	-1
36	14981	10.01	-1
36	15131	10.11	-1
36	15281	10.21	-1
36	15431	10.31	-1
36	15581	10.41	-1
36	15731	10.51	-1
36	15881	10.61	-1
36	16031	10.71	-1
36	16181	10.81	-1
36	16331	10.91	-1
36	16485	11.01	-1
36	16635	11.11	-1
36	16785	11.21	-1
36	16935	11.31	-1
36	17086	11.41	-1
36	17236	11.51	-1
36	17386	11.61	-1
36	17536	11.71	-1
36	17686	11.81	-1
36	17836	11.91	-1
36	17990	12.01	-1
36	18140	12.11	-1
36	18290	12.21	-1
36	18440	12.31	-1
36	18590	12.41	-1
36	18740	12.51	-1
36	18890	12.61	-1
36	19040	12.71	-1
36	19190	12.81	-1
36	19340	12.91	-1
36	19494	13.01	-1
36	19644	13.11	-1
36	19794	13.21	-1
36	19944	13.31	-1
36	20094	13.41	-1
36	20244	13.51	-1
36	20394	13.61	-1
36	20544	13.71	-1
36	20694	13.81	-1
36	20844	13.91	-1
36	20998	14.01	-1
36	21148	14.11	-1
36	21298	14.21	-1
36	21448	14.31	-1
36	21598	14.41	-1
36	21748	14.51	-1
36	21898	14.61	-1
36	22048	14.71	-1
36	22198	14.81	-1
36	22348	14.91	-1
36	22502	15.01	-1
36	22652	15.11	-1
36	22802	15.21	-1
36	22952	15.31	-1
36	23102	15.41	-1
36	23252	15.51	-1
36	23402	15.61	-1
36	23552	15.71	-1
36	23702	15.81	-1
36	23852	15.91	-1
36	24006	16.01	-1
36	24156	16.11	-1
36	24306	16.21	-1
36	24456	16.31	-1
36	24606	16.41	-1
36	24756	16.51	-1
36	24906	16.61	-1
36	25056	16.71	-1
36	25206	16.81	-1
36	25356	16.91	-1
36	25510	17.01	-1
36	25660	17.11	-1
36	25810	17.21	-1
36	25960	17.31	-1
36	26110	17.41	-1
36	26260	17.51	-1
36	26410	17.61	-1
36	26560	17.71	-1
36	26710	17.81	-1
36	26860	17.91	-1
36	27014	18.01	-1
36	27164	18.11	-1
36	27314	18.21	-1
36	27464	18.31	-1
36	27614	18.41	-1
36	27764	18.51	-1
36	27914	18.61	-1
36	28064	18.71	-1
36	28214	18.81	-1
36	28364	18.91	-1
36	28518	19.01	-1
36	28668	19.11	-1
36	28818	19.21	-1
36	28968	19.31	-1
36	29118	19.41	-1
36	29268	19.51	-1
36	29418	19.61	-1
36	29568	19.71	-1
36	29718	19.81	-1
36	29868	19.91	-1
36	30022	20.01	-1
36	30172	20.11	-1
36	30322	20.21	-1
36	30472	20.31	-1
36	30622	20.41	-1
36	30772	20.51	-1
36	30922	20.61	-1
36	31072	20.71	-1
36	31222	20.81	-1
36	31372	20.91	-1
36	31526	21.01	-1
36	31676	21.11	-1
36	31826	21.21	-1
36	31976	21.31	-1
36	32126	21.41	-1
36	32276	21.51	-1
36	32426	21.61	-1
36	32576	21.71	-1
36	32726	21.81	-1
36	32876	21.91	-1
36	33030	22.01	-1
36	33180	22.11	-1
36	33330	22.21	-1
36	33480	22.31	-1
36	33630	22.41	-1
36	33780	22.51	-1
36	33930	22.61	-1
36	34080	22.71	-1
36	34230	22.81	-1
36	34380	22.91	-1
36	34534	23.01	-1
36	34684	23.11	-1
36	34834	23.21	-1
36	34984	23.31	-1
36	35134	23.41	-1
36	35284	23.51	-1
36	35434	23.61	-1
36	35584	23.71	-1
36	35734	23.81	-1
36	35884	23.91	-1
36	36038	24.01	-1
36	36188	24.11	-1
36	36338	24.21	-1
36	36488	24.31	-1
36	36638	24.41	-1
36	36788	24.51	-1
36	36938	24.61	-1
36	37088	24.71	-1
36	37238	24.81	-1
36	37388	24.91	-1
36	37542	25.01	-1
36	37692	25.11	-1
36	37842	25.21	-1
36	37992	25.31	-1
36	38142	25.41	-1
36	38292	25.51	-1
36	38442	25.61	-1
36	38592	25.71	-1
36	38742	25.81	-1
36	38892	25.91	-1
36	39046	26.01	-1
36	39196	26.11	-1
36	39346	26.21	-1
36	39496	26.31	-1
36	39646	26.41	-1
36	39796	26.51	-1
36	39946	26.61	-1
36	40096	26.71	-1
36	40246	26.81	-1
36	40396	26.91	-1
36	40550	27.01	-1
36	40700	27.11	-1
36	40850	27.21	-1
36	41000	27.31	-1
36	41150	27.41	-1
36	41300	27.51	-1
36	41450	27.61	-1
36	41600	27.71	-1
36	41750	27.81	-1
36	41900	27.91	-1
36	42054	28.01	-1
36	42204	28.11	-1
36	42354	28.21	-1
36	42504	28.31	-1
36	42654	28.41	-1
36	42804	28.51	-1
36	42954	28.61	-1
36	43104	28.71	-1
36	43254	28.81	-1
36	43404	28.91	-1
36	43558	29.01	-1
36	43708	29.11	-1
36	43858	29.21	-1
36	44008	29.31	-1
36	44158	29.41	-1
36	44308	29.51	-1
36	44458	29.61	-1
36	44608	29.71	-1
36	44758	29.81	-1
36	44908	29.91	-1
36	45062	30.01	-1
36	45212	30.11	-1
36	45362	30.21	-1
36	45512	30.31	-1
36	45662	30.41	-1
36	45812	30.51	-1
36	45962	30.61	-1
36	46112	30.71	-1
36	46262	30.81	-1
36	46412	30.91	-1
36	46566	31.01	-1
36	46716	31.11	-1
36	46866	31.21	-1
36	47016	31.31	-1
36	47166	31.41	-1
36	47316	31.51	-1
36	47466	31.61	-1
36	47616	31.71	-1
36	47766	31.81	-1
36	47916	31.91	-1
36	48070	32.01	-1
36	48220	32.11	-1
36	48370	32.21	-1
36	48520	32.31	-1
36	48670	32.41	-1
36	48820	32.51	-1
36	48970	32.61	-1
36	49120	32.71	-1
36	49270	32.81	-1
36	49420	32.91	-1
36	49574	33.01	-1
36	49724	33.11	-1
36	49874	33.21	-1
36	50024	33.31	-1
36	50174	33.41	-1
36	50324	33.51	-1
36	50474	33.61	-1
36	50624	33.71	-1
36	50774	33.81	-1
36	50924	33.91	-1
36	51078	34.01	-1
36	51228	34.11	-1
36	51378	34.21	-1
36	51528	34.31	-1
36	51678	34.41	-1
36	51828	34.51	-1
36	51978	34.61	-1
36	52128	34.71	-1
36	52278	34.81	-1
36	52428	34.91	-1
36	52582	35.01	-1
36	52732	35.11	-1
38	25	0.21	2
38	175	0.31	2
38	325	0.41	2
38	475	0.51	2
38	625	0.61	2
38	775	0.71	2
38	925	0.81	2
38	1075	0.91	2
38	1229	1.01	2
38	1380	1.11	2
38	1531	1.21	2
38	1682	1.31	2
38	2045	1.41	2
38	2195	1.51	2
38	2345	1.61	2
38	2495	1.71	2
38	2645	1.81	2
38	2795	1.91	2
38	2949	2.01	2
38	3099	2.11	2
38	3249	2.21	2
38	3399	2.31	2
38	3549	2.41	2
38	3699	2.51	2
38	3849	2.61	2
38	3999	2.71	2
38	4149	2.81	2
38	4299	2.91	2
38	4453	3.01	2
38	4603	3.11	2
38	4753	3.21	2
38	4903	3.31	2
38	5053	3.41	2
38	5203	3.51	2
38	5353	3.61	2
38	5503	3.71	2
38	5653	3.81	2
38	5803	3.91	2
38	5957	4.01	2
38	6107	4.11	2
38	6257	4.21	2
38	6407	4.31	2
38	6557	4.41	2
38	6707	4.51	2
38	6857	4.61	2
38	7007	4.71	2
38	7157	4.81	2
38	7307	4.91	2
38	7461	5.01	2
38	7611	5.11	2
38	7761	5.21	2
38	7911	5.31	2
38	8061	5.41	2
38	8211	5.51	2
38	8361	5.61	2
38	8511	5.71	2
38	8661	5.81	2
38	8811	5.91	2
38	8965	6.01	2
38	9115	6.11	2
38	9265	6.21	2
38	9415	6.31	2
38	9565	6.41	2
38	9715	6.51	2
38	9865	6.61	2
38	10015	6.71	2
38	10165	6.81	2
38	10315	6.91	2
38	10469	7.01	2
38	10619	7.11	2
38	10769	7.21	2
38	10919	7.31	2
38	11069	7.41	2
38	11219	7.51	2
38	11369	7.61	2
38	11519	7.71	2
38	11669	7.81	2
38	11819	7.91	2
38	11973	8.01	2
38	12123	8.11	2
38	12273	8.21	2
38	12423	8.31	2
38	12573	8.41	2
38	12723	8.51	2
38	12873	8.61	2
38	13023	8.71	2
38	13173	8.81	2
38	13323	8.91	2
38	13477	9.01	2
38	13627	9.11	2
38	13777	9.21	2
38	13927	9.31	2
38	14077	9.41	2
38	14227	9.51	2
38	14377	9.61	2
38	14527	9.71	2
38	14677	9.81	2
38	14827	9.91	2
38	14981	10.01	2
38	15131	10.11	2
38	15281	10.21	2
38	15431	10.31	2
38	15581	10.41	2
38	15731	10.51	2
38	15881	10.61	2
38	16031	10.71	2
38	16181	10.81	2
38	16331	10.91	2
38	16485	11.01	2
38	16635	11.11	2
38	16785	11.21	2
38	16935	11.31	2
38	17086	11.41	2
38	17236	11.51	2
38	17386	11.61	2
38	17536	11.71	2
38	17686	11.81	2
38	17836	11.91	2
38	17990	12.01	2
38	18140	12.11	2
38	18290	12.21	2
38	18440	12.31	2
38	18590	12.41	2
38	18740	12.51	2
38	18890	12.61	2
38	19040	12.71	2
38	19190	12.81	2
38	19340	12.91	2
38	19494	13.01	2
38	19644	13.11	2
38	19794	13.21	2
38	19944	13.31	2
38	20094	13.41	2
38	20244	13.51	2
38	20394	13.61	2
38	20544	13.71	2
38	20694	13.81	2
38	20844	13.91	2
38	20998	14.01	2
38	21148	14.11	2
38	21298	14.21	2
38	21448	14.31	2
38	21598	14.41	2
38	21748	14.51	2
38	21898	14.61	2
38	22048	14.71	2
38	22198	14.81	2
38	22348	14.91	2
38	22502	15.01	2
38	22652	15.11	2
38	22802	15.21	2
38	22952	15.31	2
38	23102	15.41	2
38	23252	15.51	2
38	23402	15.61	2
38	23552	15.71	2
38	23702	15.81	2
38	23852	15.91	2
38	24006	16.01	2
38	24156	16.11	2
38	24306	16.21	2
38	24456	16.31	2
38	24606	16.41	2
38	24756	16.51	2
38	24906	16.61	2
38	25056	16.71	2
38	25206	16.81	2
38	25356	16.91	2
38	25510	17.01	2
38	25660	17.11	2
38	25810	17.21	2
38	25960	17.31	2
38	26110	17.41	2
38	26260	17.51	2
38	26410	17.61	2
38	26560	17.71	2
38	26710	17.81	2
38	26860	17.91	2
38	27014	18.01	2
38	27164	18.11	2
38	27314	18.21	2
38	27464	18.31	2
38	27614	18.41	2
38	27764	18.51	2
38	27914	18.61	2
38	28064	18.71	2
38	28214	18.81	2
38	28364	18.91	2
38	28518	19.01	2
38	28668	19.11	2
38	28818	19.21	2
38	28968	19.31	2
38	29118	19.41	2
38	29268	19.51	2
38	29418	19.61	2
38	29568	19.71	2
38	29718	19.81	2
38	29868	19.91	2
38	30022	20.01	2
38	30172	20.11	2
38	30322	20.21	2
38	30472	20.31	2
38	30622	20.41	2
38	30772	20.51	2
38	30922	20.61	2
38	31072	20.71	2
38	31222	20.81	2
38	31372	20.91	2
38	31526	21.01	2
38	31676	21.11	2
38	31826	21.21	2
38	31976	21.31	2
38	32126	21.41	2
38	32276	21.51	2
38	32426	21.61	2
38	32576	21.71	2
38	32726	21.81	2
38	32876	21.91	2
38	33030	22.01	2
38	33180	22.11	2
38	33330	22.21	2
38	33480	22.31	2
38	33630	22.41	2
38	33780	22.51	2
38	33930	22.61	2
38	34080	22.71	2
38	34230	22.81	2
38	34380	22.91	2
38	34534	23.01	2
38	34684	23.11	2
38	34834	23.21	2
38	34984	23.31	2
38	35134	23.41	2
38	35284	23.51	2
38	35434	23.61	2
38	35584	23.71	2
38	35734	23.81	2
38	35884	23.91	2
38	36038	24.01	2
38	36188	24.11	2
38	36338	24.21	2
38	36488	24.31	2
38	36638	24.41	2
38	36788	24.51	2
38	36938	24.61	2
38	37088	24.71	2
38	37238	24.81	2
38	37388	24.91	2
38	37542	25.01	2
38	37692	25.11	2
38	37842	25.21	2
38	37992	25.31	2
38	38142	25.41	2
38	38292	25.51	2
38	38442	25.61	2
38	38592	25.71	2
38	38742	25.81	2
38	38892	25.91	2
38	39046	26.01	2
38	39196	26.11	2
38	39346	26.21	2
38	39496	26.31	2
38	39646	26.41	2
38	39796	26.51	2
38	39946	26.61	2
38	40096	26.71	2
38	40246	26.81	2
38	40396	26.91	2
38	40550	27.01	2
38	40700	27.11	2
38	40850	27.21	2
38	41000	27.31	2
38	41150	27.41	2
38	41300	27.51	2
38	41450	27.61	2
38	41600	27.71	2
38	41750	27.81	2
38	41900	27.91	2
38	42054	28.01	2
38	42204	28.11	2
38	42354	28.21	2
38	42504	28.31	2
38	42654	28.41	2
38	42804	28.51	2
38	42954	28.61	2
38	43104	28.71	2
38	43254	28.81	2
38	43404	28.91	2
38	43558	29.01	2
38	43708	29.11	2
38	43858	29.21	2
38	44008	29.31	2
38	44158	29.41	2
38	44308	29.51	2
38	44458	29.61	2
38	44608	29.71	2
38	44758	29.81	2
38	44908	29.91	2
38	45062	30.01	2
38	45212	30.11	2
38	45362	30.21	2
38	45512	30.31	2
38	45662	30.41	2
38	45812	30.51	2
38	45962	30.61	2
38	46112	30.71	2
38	46262	30.81	2
38	46412	30.91	2
38	46566	31.01	2
38	46716	31.11	2
38	46866	31.21	2
38	47016	31.31	2
38	47166	31.41	2
38	47316	31.51	2
38	47466	31.61	2
38	47616	31.71	2
38	47766	31.81	2
38	47916	31.91	2
38	48070	32.01	2
38	48220	32.11	2
38	48370	32.21	2
38	48520	32.31	2
38	48670	32.41	2
38	48820	32.51	2
38	48970	32.61	2
38	49120	32.71	2
38	49270	32.81	2
38	49420	32.91	2
38	49574	33.01	2
38	49724	33.11	2
38	49874	33.21	2
38	50024	33.31	2
38	50174	33.41	2
38	50324	33.51	2
38	50474	33.61	2
38	50624	33.71	2
38	50774	33.81	2
38	50924	33.91	2
38	51078	34.01	2
38	51228	34.11	2
38	51378	34.21	2
38	51528	34.31	2
38	51678	34.41	2
38	51828	34.51	2
38	51978	34.61	2
38	52128	34.71	2
38	52278	34.81	2
38	52428	34.91	2
38	52582	35.01	2
38	52732	35.11	2
64	1190	1	0
64	2910	2	0
64	4414	3	0
64	5918	4	0
64	7422	5	0
64	8926	6	0
64	10430	7	0
64	11934	8	0
64	13438	9	0
64	14942	10	0
64	16446	11	0
64	17951	12	0
64	19455	13	0
64	20959	14	0
64	22463	15	0
64	23967	16	0
64	25471	17	0
64	26975	18	0
64	28479	19	0
64	29983	20	0
64	31487	21	0
64	32991	22	0
64	34495	23	0
64	35999	24	0
64	37503	25	0
64	39007	26	0
64	40511	27	0
64	42015	28	0
64	43519	29	0
64	45023	30	0
64	46527	31	0
64	48031	32	0
64	49535	33	0
64	51039	34	0
64	52543	35	0
63	1190	1	0.00968
63	2910	2	0.013071360936
63	4414	3	0.01249
63	5918	4	0.01249
63	7422	5	0.01249
63	8926	6	0.01249
63	10430	7	0.01249
63	11934	8	0.01249
63	13438	9	0.01249
63	14942	10	0.01249
63	16446	11	0.01249
63	17951	12	0.01249
63	19455	13	0.01249
63	20959	14	0.01249
63	22463	15	0.01249
63	23967	16	0.01249
63	25471	17	0.01249
63	26975	18	0.01249
63	28479	19	0.01249
63	29983	20	0.01249
63	31487	21	0.01249
63	32991	22	0.01249
63	34495	23	0.01249
63	35999	24	0.01249
63	37503	25	0.01249
63	39007	26	0.01249
63	40511	27	0.01249
63	42015	28	0.01249
63	43519	29	0.01249
63	45023	30	0.01249
63	46527	31	0.01249
63	48031	32	0.01249
63	49535	33	0.01249
63	51039	34	0.01249
63	52543	35	0.01249
62	1190	1	2
62	2910	2	2
62	4414	3	2
62	5918	4	2
62	7422	5	2
62	8926	6	2
62	10430	7	2
62	11934	8	2
62	13438	9	2
62	14942	10	2
62	16446	11	2
62	17951	12	2
62	19455	13	2
62	20959	14	2
62	22463	15	2
62	23967	16	2
62	25471	17	2
62	26975	18	2
62	28479	19	2
62	29983	20	2
62	31487	21	2
62	32991	22	2
62	34495	23	2
62	35999	24	2
62	37503	25	2
62	39007	26	2
62	40511	27	2
62	42015	28	2
62	43519	29	2
62	45023	30	2
62	46527	31	2
62	48031	32	2
62	49535	33	2
62	51039	34	2
62	52543	35	2
17	15	0.13	2.5384870791679
17	16	0.14	1.6181993511681
17	17	0.15	0.71503928181322
17	18	0.16	-0.17103717331235
17	19	0.17	0.973
17	20	0.18	0.973
17	21	0.19	0.973
17	22	0.2	0.973
17	27	0.21	0.973
17	62	0.22	0.973
17	97	0.23	0.973
17	98	0.24	0.973
17	99	0.25	0.973
17	134	0.26	0.973
17	135	0.27	0.973
17	136	0.28	0.973
17	137	0.29	0.973
17	138	0.3	0.973
17	177	0.31	0.973
17	212	0.32	0.973
17	247	0.33	0.973
17	248	0.34	0.973
17	249	0.35	0.973
17	284	0.36	0.973
17	285	0.37	0.973
17	286	0.38	0.973
17	287	0.39	0.973
17	288	0.4	0.973
17	327	0.41	0.973
17	362	0.42	0.973
17	397	0.43	0.973
17	398	0.44	0.973
17	399	0.45	0.973
17	434	0.46	0.973
17	435	0.47	0.973
17	436	0.48	0.973
17	437	0.49	0.973
17	438	0.5	0.973
17	477	0.51	0.973
17	512	0.52	0.973
17	547	0.53	0.973
17	548	0.54	0.973
17	549	0.55	0.973
17	584	0.56	0.973
17	585	0.57	0.973
17	586	0.58	0.973
17	587	0.59	0.973
17	588	0.6	0.973
17	627	0.61	0.973
17	662	0.62	0.973
17	697	0.63	0.973
17	698	0.64	0.973
17	699	0.65	0.973
17	734	0.66	0.973
17	735	0.67	0.973
17	736	0.68	0.973
17	737	0.69	0.973
17	738	0.7	0.973
17	777	0.71	0.973
17	812	0.72	0.973
17	847	0.73	0.973
17	848	0.74	0.973
17	849	0.75	0.973
17	884	0.76	0.973
17	885	0.77	0.973
17	886	0.78	0.973
17	887	0.79	0.973
17	888	0.8	0.973
17	927	0.81	0.973
17	962	0.82	0.973
17	997	0.83	0.973
17	998	0.84	0.973
17	999	0.85	0.973
17	1034	0.86	0.973
17	1035	0.87	0.973
17	1036	0.88	0.973
17	1037	0.89	0.973
17	1038	0.9	0.973
17	1077	0.91	0.973
17	1112	0.92	0.973
17	1147	0.93	0.973
17	1148	0.94	0.973
17	1149	0.95	0.973
17	1184	0.96	0.973
17	1185	0.97	0.973
17	1186	0.98	0.973
17	1187	0.99	0.973
17	1192	1	0.973
17	1231	1.01	0.973
17	1266	1.02	0.973
17	1301	1.03	0.973
17	1302	1.04	0.973
17	1303	1.05	0.973
17	1338	1.06	0.973
17	1339	1.07	0.973
17	1340	1.08	0.973
17	1341	1.09	0.973
17	1342	1.1	0.973
17	1382	1.11	0.973
17	1417	1.12	0.973
17	1452	1.13	0.973
17	1453	1.14	0.973
17	1454	1.15	0.973
17	1489	1.16	0.973
17	1490	1.17	0.973
17	1491	1.18	0.973
17	1492	1.19	0.973
17	1493	1.2	0.973
17	1533	1.21	0.973
17	1568	1.22	0.973
17	1603	1.23	0.973
17	1604	1.24	0.973
17	1605	1.25	0.973
17	1640	1.26	0.973
17	1641	1.27	0.973
17	1642	1.28	0.973
17	1643	1.29	0.973
17	1644	1.3	0.973
17	1684	1.31	0.973
17	1931	1.32	0.973
17	1966	1.33	0.973
17	1967	1.34	0.973
17	1968	1.35	0.973
17	2004	1.36	0.973
17	2005	1.37	0.973
17	2006	1.38	0.973
17	2007	1.39	0.973
17	2008	1.4	0.973
17	2047	1.41	0.973
17	2082	1.42	0.973
17	2117	1.43	0.973
17	2118	1.44	0.973
17	2119	1.45	0.973
17	2154	1.46	0.973
17	2155	1.47	0.973
17	2156	1.48	0.973
17	2157	1.49	0.973
17	2158	1.5	0.973
17	2197	1.51	0.973
17	2232	1.52	0.973
17	2267	1.53	0.973
17	2268	1.54	0.973
17	2269	1.55	0.973
17	2304	1.56	0.973
17	2305	1.57	0.973
17	2306	1.58	0.973
17	2307	1.59	0.973
17	2308	1.6	0.973
17	2347	1.61	0.973
17	2382	1.62	0.973
17	2417	1.63	0.973
17	2418	1.64	0.973
17	2419	1.65	0.973
17	2454	1.66	0.973
17	2455	1.67	0.973
17	2456	1.68	0.973
17	2457	1.69	0.973
17	2458	1.7	0.973
17	2497	1.71	0.973
17	2532	1.72	0.973
17	2567	1.73	0.973
17	2568	1.74	0.973
17	2569	1.75	0.973
17	2604	1.76	0.973
17	2605	1.77	0.973
17	2606	1.78	0.973
17	2607	1.79	0.973
17	2608	1.8	0.973
17	2647	1.81	0.973
17	2682	1.82	0.973
17	2717	1.83	0.973
17	2718	1.84	0.973
17	2719	1.85	0.973
17	2754	1.86	0.973
17	2755	1.87	0.973
17	2756	1.88	0.973
17	2757	1.89	0.973
17	2758	1.9	0.973
17	2797	1.91	0.973
17	2832	1.92	0.973
17	2867	1.93	0.973
17	2868	1.94	0.52665434864749
17	2869	1.95	0.72777512198986
17	2904	1.96	0.92489282517555
17	2905	1.97	1.1180970082791
17	2906	1.98	1.3074749873025
17	2907	1.99	1.4931119075517
17	2912	2	1.6750908049738
17	2951	2.01	1.8534926655541
17	2986	2.02	2.02839648283
17	3021	2.03	2.1998793135792
17	3022	2.04	2.3680163317607
17	3023	2.05	2.5328808807555
17	3058	2.06	2.6945445239779
17	3059	2.07	2.8530770938945
17	3060	2.08	3.0085467395282
17	3061	2.09	3.1610199724842
17	3062	2.1	3.3105617115532
17	3101	2.11	3.4572353259338
17	3136	2.12	3.601102677134
17	3171	2.13	3.7422241595869
17	3172	2.14	3.8806587400241
17	3173	2.15	4.0164639956489
17	3208	2.16	4.1496961511596
17	3209	2.17	4.2804101146448
17	3210	2.18	4.4086595124006
17	3211	2.19	4.5344967227069
17	3212	2.2	4.6579729085834
17	3251	2.21	4.7791380495745
17	3286	2.22	4.8980409725906
17	3321	2.23	5.0147293818342
17	3322	2.24	5.1292498878381
17	3323	2.25	5.2416480356607
17	3358	2.26	5.3519683322405
17	3359	2.27	5.4602542729632
17	3360	2.28	5.5665483674539
17	3361	2.29	5.6708921646131
17	3362	2.3	5.7733262769395
17	3401	2.31	5.8738904041475
17	3436	2.32	5.9726233561065
17	3471	2.33	6.0695630751242
17	3472	2.34	6.1647466576019
17	3473	2.35	6.2582103750645
17	3508	2.36	6.3499896946047
17	3509	2.37	6.4401192987456
17	3510	2.38	6.528633104753
17	3511	2.39	6.6155642833954
17	3512	2.4	6.7009452771947
17	3551	2.41	6.7848078181612
17	3586	2.42	6.8671829450421
17	3621	2.43	6.9481010200938
17	3622	2.44	7.0275917453914
17	3623	2.45	7.1056841786974
17	3658	2.46	7.1824067488912
17	3659	2.47	7.2577872709881
17	3660	2.48	7.33185296074
17	3661	2.49	7.404630448859
17	3662	2.5	7.4761457948399
17	3701	2.51	7.5464245004313
17	3736	2.52	7.6154915227359
17	3771	2.53	7.6833712869645
17	3772	2.54	7.7500876988546
17	3773	2.55	7.8156641567665
17	3808	2.56	7.8801235634515
17	3809	2.57	7.9434883375181
17	3810	2.58	8.0057804246009
17	3811	2.59	8.0670213082353
17	3812	2.6	8.1272320204509
17	3851	2.61	8.1864331520977
17	3886	2.62	8.2446448628995
17	3921	2.63	8.3018868912551
17	3922	2.64	8.3581785637879
17	3923	2.65	8.4135388046496
17	3958	2.66	8.4679861445916
17	3959	2.67	8.5215387298147
17	3960	2.68	8.5742143305763
17	3961	2.69	8.6260303496072
17	3962	2.7	8.6770038302968
17	4001	2.71	8.7271514646876
17	4036	2.72	8.7764896012667
17	4071	2.73	8.8250342525636
17	4072	2.74	8.8728011025666
17	4073	2.75	8.9198055139522
17	4108	2.76	8.9660625351393
17	4109	2.77	9.0115869071694
17	4110	2.78	9.0563930704259
17	4111	2.79	9.1004951711842
17	4112	2.8	9.1439070680037
17	4151	2.81	9.1866423379765
17	4186	2.82	9.2287142828119
17	4221	2.83	9.2701359347848
17	4222	2.84	9.3109200625405
17	4223	2.85	9.3510791767607
17	4258	2.86	9.3906255356986
17	4259	2.87	9.4295711505765
17	4260	2.88	9.467927790866
17	4261	2.89	9.505706989438
17	4262	2.9	9.5429200475955
17	4301	2.91	9.579578039984
17	4336	2.92	9.6156918193951
17	4371	2.93	9.6512720214572
17	4372	2.94	9.6863290692146
17	4373	2.95	9.7208731776019
17	4408	2.96	9.754914357821
17	4409	2.97	9.7884624216119
17	4410	2.98	9.8215269854267
17	4411	2.99	9.8541174745164
17	4416	3	9.8862431269116
17	4455	3.01	9.9179129973267
17	4490	3.02	9.9491359609687
17	4525	3.03	9.9799207172592
17	4526	3.04	10.01027579348
17	4527	3.05	10.04020954833
17	4562	3.06	10.069730175405
17	4563	3.07	10.098845706604
17	4564	3.08	10.127564015454
17	4565	3.09	10.155892820366
17	4566	3.1	10.183839687816
17	4605	3.11	10.211412035457
17	4640	3.12	10.238617135163
17	4675	3.13	10.265462116007
17	4676	3.14	10.291953967171
17	4677	3.15	10.3180995408
17	4712	3.16	10.34390555478
17	4713	3.17	10.369378595474
17	4714	3.18	10.394525120382
17	4715	3.19	10.419351460752
17	4716	3.2	10.443863824141
17	4755	3.21	10.468068296901
17	4790	3.22	10.491970846633
17	4825	3.23	10.515577324578
17	4826	3.24	10.538893467957
17	4827	3.25	10.561924902264
17	4862	3.26	10.584677143509
17	4863	3.27	10.607155600414
17	4864	3.28	10.629365576559
17	4865	3.29	10.651312272488
17	4866	3.3	10.673000787771
17	4905	3.31	10.694436123012
17	4940	3.32	10.715623181832
17	4975	3.33	10.736566772791
17	4976	3.34	10.757271611287
17	4977	3.35	10.777742321407
17	5012	3.36	10.797983437738
17	5013	3.37	10.817999407143
17	5014	3.38	10.837794590506
17	5015	3.39	10.857373264422
17	5016	3.4	10.876739622878
17	5055	3.41	10.895897778878
17	5090	3.42	10.914851766044
17	5125	3.43	10.933605540185
17	5126	3.44	10.952162980828
17	5127	3.45	10.970527892721
17	5162	3.46	10.988704007305
17	5163	3.47	11.006694984156
17	5164	3.48	11.0245044124
17	5165	3.49	11.042135812092
17	5166	3.5	11.05959263557
17	5205	3.51	11.076878268792
17	5240	3.52	11.093996032622
17	5275	3.53	11.110949184118
17	5276	3.54	11.127740917769
17	5277	3.55	11.144374366731
17	5312	3.56	11.160852604011
17	5313	3.57	11.177178643651
17	5314	3.58	11.193355441874
17	5315	3.59	11.209385898214
17	5316	3.6	11.225272856619
17	5355	3.61	11.241019106534
17	5390	3.62	11.256627383961
17	5425	3.63	11.272100372498
17	5426	3.64	11.287440704357
17	5427	3.65	11.302650961369
17	5462	3.66	11.317733675953
17	5463	3.67	11.332691332077
17	5464	3.68	11.347526366203
17	5465	3.69	11.362241168205
17	5466	3.7	11.376838082267
17	5505	3.71	11.391319407775
17	5540	3.72	11.405687400177
17	5575	3.73	11.419944271841
17	5576	3.74	11.434092192881
17	5577	3.75	11.448133291977
17	5612	3.76	11.462069657176
17	5613	3.77	11.475903336674
17	5614	3.78	11.489636339587
17	5615	3.79	11.503270636703
17	5616	3.8	11.516808161227
17	5655	3.81	11.530250809496
17	5690	3.82	11.543600441699
17	5725	3.83	11.556858882564
17	5726	3.84	11.57002792205
17	5727	3.85	11.58310931601
17	5762	3.86	11.596104786849
17	5763	3.87	11.609016024165
17	5764	3.88	11.621844685387
17	5765	3.89	11.634592396383
17	5766	3.9	11.647260752075
17	5805	3.91	11.659851317025
17	5840	3.92	11.672365626028
17	5875	3.93	11.684805184674
17	5876	3.94	11.697171469915
17	5877	3.95	11.70946593061
17	5912	3.96	11.721689988067
17	5913	3.97	11.733845036567
17	5914	3.98	11.745932443885
17	5915	3.99	11.757953551799
17	5920	4	11.769909676584
17	5959	4.01	11.781802109505
17	5994	4.02	11.793632117289
17	6029	4.03	11.805400942602
17	6030	4.04	11.817109804504
17	6031	4.05	11.828759898908
17	6066	4.06	11.840352399008
17	6067	4.07	11.851888455732
17	6068	4.08	11.863369198153
17	6069	4.09	11.874795733911
17	6070	4.1	11.886169149626
17	6109	4.11	11.897490511299
17	6144	4.12	11.908760864699
17	6179	4.13	11.919981235757
17	6180	4.14	11.931152630942
17	6181	4.15	11.942276037629
17	6216	4.16	11.953352424471
17	6217	4.17	11.964382741747
17	6218	4.18	11.975367921722
17	6219	4.19	11.986308878982
17	6220	4.2	11.997206510778
17	6259	4.21	12.008061697349
17	6294	4.22	12.018875302257
17	6329	4.23	12.029648172691
17	6330	4.24	12.040381139793
17	6331	4.25	12.051075018956
17	6366	4.26	12.061730610122
17	6367	4.27	12.072348698081
17	6368	4.28	12.08293005276
17	6369	4.29	12.093475429502
17	6370	4.3	12.103985569348
17	6409	4.31	12.114461199304
17	6444	4.32	12.124903032616
17	6479	4.33	12.135311769019
17	6480	4.34	12.145688095011
17	6481	4.35	12.15603268409
17	6516	4.36	12.16634619701
17	6517	4.37	12.176629282021
17	6518	4.38	12.186882575105
17	6519	4.39	12.197106700211
17	6520	4.4	12.207302269485
17	6559	4.41	12.21746988349
17	6594	4.42	12.227610131434
17	6629	4.43	12.237723591376
17	6630	4.44	12.24781083045
17	6631	4.45	12.257872405056
17	6666	4.46	12.267908861083
17	6667	4.47	12.277920734094
17	6668	4.48	12.28790854953
17	6669	4.49	12.297872822897
17	6670	4.5	12.307814059962
17	6709	4.51	12.317732756929
17	6744	4.52	12.327629400629
17	6779	4.53	12.337504468692
17	6780	4.54	12.347358429726
17	6781	4.55	12.357191743485
17	6816	4.56	12.367004861039
17	6817	4.57	12.376798224936
17	6818	4.58	12.38657226937
17	6819	4.59	12.396327420334
17	6820	4.6	12.406064095777
17	6859	4.61	12.415782705759
17	6894	4.62	12.425483652596
17	6929	4.63	12.435167331014
17	6930	4.64	12.444834128285
17	6931	4.65	12.454484424373
17	6966	4.66	12.464118592074
17	6967	4.67	12.473736997147
17	6968	4.68	12.483339998454
17	6969	4.69	12.492927948087
17	6970	4.7	12.502501191495
17	7009	4.71	12.512060067612
17	7044	4.72	12.521604908984
17	7079	4.73	12.531136041882
17	7080	4.74	12.540653786427
17	7081	4.75	12.550158456708
17	7116	4.76	12.559650360893
17	7117	4.77	12.56912980134
17	7118	4.78	12.578597074712
17	7119	4.79	12.588052472081
17	7120	4.8	12.597496279033
17	7159	4.81	12.606928775779
17	7194	4.82	12.61635023725
17	7229	4.83	12.625760933199
17	7230	4.84	12.635161128302
17	7231	4.85	12.644551082249
17	7266	4.86	12.653931049843
17	7267	4.87	12.663301281092
17	7268	4.88	12.672662021297
17	7269	4.89	12.682013511146
17	7270	4.9	12.691355986794
[...]
2	63103	55.23	931.55726268403
2	63104	55.24	931.69615168374
2	63105	55.25	931.83504068346
2	63124	55.26	931.97392968317
2	63125	55.27	932.11281868289
2	63126	55.28	932.2517076826
2	63127	55.29	932.39059668231
2	63128	55.3	932.52948568203
2	63131	55.31	932.66837468175
2	63132	55.32	932.80726368146
2	63151	55.33	932.94615268118
2	63152	55.34	933.0850416809
2	63153	55.35	933.22393068061
2	63172	55.36	933.36281968033
2	63173	55.37	933.50170868005
2	63174	55.38	933.64059767977
2	63175	55.39	933.77948667949
2	63176	55.4	933.91837567921
2	63179	55.41	934.05726467893
2	63180	55.42	934.19615367865
2	63199	55.43	934.33504267837
2	63200	55.44	934.47393167809
2	63201	55.45	934.61282067782
2	63220	55.46	934.75170967754
2	63221	55.47	934.89059867726
2	63222	55.48	935.02948767698
2	63223	55.49	935.16837667671
2	63224	55.5	935.30726567643
2	63227	55.51	935.44615467616
2	63228	55.52	935.58504367588
2	63247	55.53	935.72393267561
2	63248	55.54	935.86282167533
2	63249	55.55	936.00171067506
2	63268	55.56	936.14059967479
2	63269	55.57	936.27948867451
2	63270	55.58	936.41837767424
2	63271	55.59	936.55726667397
2	63272	55.6	936.6961556737
2	63275	55.61	936.83504467343
2	63276	55.62	936.97393367316
2	63295	55.63	937.11282267289
2	63296	55.64	937.25171167262
2	63297	55.65	937.39060067235
2	63316	55.66	937.52948967208
2	63317	55.67	937.66837867181
2	63318	55.68	937.80726767154
2	63319	55.69	937.94615667127
2	63320	55.7	938.08504567101
2	63323	55.71	938.22393467074
2	63324	55.72	938.36282367047
2	63343	55.73	938.50171267021
2	63344	55.74	938.64060166994
2	63345	55.75	938.77949066968
2	63364	55.76	938.91837966941
2	63365	55.77	939.05726866915
2	63366	55.78	939.19615766888
2	63367	55.79	939.33504666862
2	63368	55.8	939.47393566836
2	63371	55.81	939.61282466809
2	63372	55.82	939.75171366783
2	63391	55.83	939.89060266757
2	63392	55.84	940.02949166731
2	63393	55.85	940.16838066705
2	63412	55.86	940.30726966679
2	63413	55.87	940.44615866653
2	63414	55.88	940.58504766627
2	63415	55.89	940.72393666601
2	63416	55.9	940.86282566575
2	63419	55.91	941.00171466549
2	63420	55.92	941.14060366523
2	63439	55.93	941.27949266497
2	63440	55.94	941.41838166472
2	63441	55.95	941.55727066446
2	63460	55.96	941.6961596642
2	63461	55.97	941.83504866395
2	63462	55.98	941.97393766369
2	63463	55.99	942.11282666343
2	63466	56	942.25171566318
2	63469	56.01	942.39060466292
2	63470	56.02	942.52949366267
2	63489	56.03	942.66838266242
2	63490	56.04	942.80727166216
2	63491	56.05	942.94616066191
2	63510	56.06	943.08504966166
2	63511	56.07	943.2239386614
2	63512	56.08	943.36282766115
2	63513	56.09	943.5017166609
2	63514	56.1	943.64060566065
2	63517	56.11	943.7794946604
2	63518	56.12	943.91838366015
2	63537	56.13	944.0572726599
2	63538	56.14	944.19616165965
2	63539	56.15	944.3350506594
2	63558	56.16	944.47393965915
2	63559	56.17	944.6128286589
2	63560	56.18	944.75171765866
2	63561	56.19	944.89060665841
2	63562	56.2	945.02949565816
2	63565	56.21	945.16838465791
2	63566	56.22	945.30727365767
2	63585	56.23	945.44616265742
2	63586	56.24	945.58505165718
2	63587	56.25	945.72394065693
2	63606	56.26	945.86282965669
2	63607	56.27	946.00171865644
2	63608	56.28	946.1406076562
2	63609	56.29	946.27949665595
2	63610	56.3	946.41838565571
2	63613	56.31	946.55727465547
2	63614	56.32	946.69616365522
2	63633	56.33	946.83505265498
2	63634	56.34	946.97394165474
2	63635	56.35	947.1128306545
2	63654	56.36	947.25171965426
2	63655	56.37	947.39060865402
2	63656	56.38	947.52949765378
2	63657	56.39	947.66838665354
2	63658	56.4	947.8072756533
2	63661	56.41	947.94616465306
2	63662	56.42	948.08505365282
2	63681	56.43	948.22394265258
2	63682	56.44	948.36283165234
2	63683	56.45	948.5017206521
2	63702	56.46	948.64060965187
2	63703	56.47	948.77949865163
2	63704	56.48	948.91838765139
2	63705	56.49	949.05727665116
2	63706	56.5	949.19616565092
2	63709	56.51	949.33505465069
2	63710	56.52	949.47394365045
2	63729	56.53	949.61283265022
2	63730	56.54	949.75172164998
2	63731	56.55	949.89061064975
2	63750	56.56	950.02949964951
2	63751	56.57	950.16838864928
2	63752	56.58	950.30727764905
2	63753	56.59	950.44616664881
2	63754	56.6	950.58505564858
2	63757	56.61	950.72394464835
2	63758	56.62	950.86283364812
2	63777	56.63	951.00172264789
2	63778	56.64	951.14061164766
2	63779	56.65	951.27950064743
2	63798	56.66	951.4183896472
2	63799	56.67	951.55727864697
2	63800	56.68	951.69616764674
2	63801	56.69	951.83505664651
2	63802	56.7	951.97394564628
2	63805	56.71	952.11283464605
2	63806	56.72	952.25172364582
2	63825	56.73	952.3906126456
2	63826	56.74	952.52950164537
2	63827	56.75	952.66839064514
2	63846	56.76	952.80727964491
2	63847	56.77	952.94616864469
2	63848	56.78	953.08505764446
2	63849	56.79	953.22394664424
2	63850	56.8	953.36283564401
2	63853	56.81	953.50172464379
2	63854	56.82	953.64061364356
2	63873	56.83	953.77950264334
2	63874	56.84	953.91839164312
2	63875	56.85	954.05728064289
2	63894	56.86	954.19616964267
2	63895	56.87	954.33505864245
2	63896	56.88	954.47394764222
2	63897	56.89	954.612836642
2	63898	56.9	954.75172564178
2	63901	56.91	954.89061464156
2	63902	56.92	955.02950364134
2	63921	56.93	955.16839264112
2	63922	56.94	955.3072816409
2	63923	56.95	955.44617064068
2	63942	56.96	955.58505964046
2	63943	56.97	955.72394864024
2	63944	56.98	955.86283764002
2	63945	56.99	956.0017266398
2	63948	57	956.14061563958
2	63951	57.01	956.27950463937
2	63952	57.02	956.41839363915
2	63971	57.03	956.55728263893
2	63972	57.04	956.69617163871
2	63973	57.05	956.8350606385
2	63992	57.06	956.97394963828
2	63993	57.07	957.11283863806
2	63994	57.08	957.25172763785
2	63995	57.09	957.39061663763
2	63996	57.1	957.52950563742
2	63999	57.11	957.66839463721
2	64000	57.12	957.80728363699
2	64019	57.13	957.94617263678
2	64020	57.14	958.08506163656
2	64021	57.15	958.22395063635
2	64040	57.16	958.36283963614
2	64041	57.17	958.50172863593
2	64042	57.18	958.64061763571
2	64043	57.19	958.7795066355
2	64044	57.2	958.91839563529
2	64047	57.21	959.05728463508
2	64048	57.22	959.19617363487
2	64067	57.23	959.33506263466
2	64068	57.24	959.47395163445
2	64069	57.25	959.61284063424
2	64088	57.26	959.75172963403
2	64089	57.27	959.89061863382
2	64090	57.28	960.02950763361
2	64091	57.29	960.1683966334
2	64092	57.3	960.30728563319
2	64095	57.31	960.44617463299
2	64096	57.32	960.58506363278
2	64115	57.33	960.72395263257
2	64116	57.34	960.86284163236
2	64117	57.35	961.00173063216
2	64136	57.36	961.14061963195
2	64137	57.37	961.27950863174
2	64138	57.38	961.41839763154
2	64139	57.39	961.55728663133
2	64140	57.4	961.69617563113
2	64143	57.41	961.83506463092
2	64144	57.42	961.97395363072
2	64163	57.43	962.11284263052
2	64164	57.44	962.25173163031
2	64165	57.45	962.39062063011
2	64184	57.46	962.52950962991
2	64185	57.47	962.6683986297
2	64186	57.48	962.8072876295
2	64187	57.49	962.9461766293
2	64188	57.5	963.0850656291
2	64191	57.51	963.22395462889
2	64192	57.52	963.36284362869
2	64211	57.53	963.50173262849
2	64212	57.54	963.64062162829
2	64213	57.55	963.77951062809
2	64232	57.56	963.91839962789
2	64233	57.57	964.05728862769
2	64234	57.58	964.19617762749
2	64235	57.59	964.33506662729
2	64236	57.6	964.4739556271
2	64239	57.61	964.6128446269
2	64240	57.62	964.7517336267
2	64259	57.63	964.8906226265
2	64260	57.64	965.0295116263
2	64261	57.65	965.16840062611
2	64280	57.66	965.30728962591
2	64281	57.67	965.44617862571
2	64282	57.68	965.58506762552
2	64283	57.69	965.72395662532
2	64284	57.7	965.86284562513
2	64287	57.71	966.00173462493
2	64288	57.72	966.14062362474
2	64307	57.73	966.27951262454
2	64308	57.74	966.41840162435
2	64309	57.75	966.55729062415
2	64328	57.76	966.69617962396
2	64329	57.77	966.83506862377
2	64330	57.78	966.97395762357
2	64331	57.79	967.11284662338
2	64332	57.8	967.25173562319
2	64335	57.81	967.39062462299
2	64336	57.82	967.5295136228
2	64355	57.83	967.66840262261
2	64356	57.84	967.80729162242
2	64357	57.85	967.94618062223
2	64376	57.86	968.08506962204
2	64377	57.87	968.22395862185
2	64378	57.88	968.36284762166
2	64379	57.89	968.50173662147
2	64380	57.9	968.64062562128
2	64383	57.91	968.77951462109
2	64384	57.92	968.9184036209
2	64403	57.93	969.05729262071
2	64404	57.94	969.19618162052
2	64405	57.95	969.33507062033
2	64424	57.96	969.47395962015
2	64425	57.97	969.61284861996
2	64426	57.98	969.75173761977
2	64427	57.99	969.89062661958
2	64430	58	970.0295156194
2	64433	58.01	970.16840461921
2	64434	58.02	970.30729361903
2	64453	58.03	970.44618261884
2	64454	58.04	970.58507161865
2	64455	58.05	970.72396061847
2	64474	58.06	970.86284961828
2	64475	58.07	971.0017386181
2	64476	58.08	971.14062761791
2	64477	58.09	971.27951661773
2	64478	58.1	971.41840561755
2	64481	58.11	971.55729461736
2	64482	58.12	971.69618361718
2	64501	58.13	971.835072617
2	64502	58.14	971.97396161681
2	64503	58.15	972.11285061663
2	64522	58.16	972.25173961645
2	64523	58.17	972.39062861627
2	64524	58.18	972.52951761609
2	64525	58.19	972.66840661591
2	64526	58.2	972.80729561573
2	64529	58.21	972.94618461554
2	64530	58.22	973.08507361536
2	64549	58.23	973.22396261518
2	64550	58.24	973.362851615
2	64551	58.25	973.50174061482
2	64570	58.26	973.64062961465
2	64571	58.27	973.77951861447
2	64572	58.28	973.91840761429
2	64573	58.29	974.05729661411
2	64574	58.3	974.19618561393
2	64577	58.31	974.33507461375
2	64578	58.32	974.47396361358
2	64597	58.33	974.6128526134
2	64598	58.34	974.75174161322
2	64599	58.35	974.89063061304
2	64618	58.36	975.02951961287
2	64619	58.37	975.16840861269
2	64620	58.38	975.30729761252
2	64621	58.39	975.44618661234
2	64622	58.4	975.58507561217
2	64625	58.41	975.72396461199
2	64626	58.42	975.86285361182
2	64645	58.43	976.00174261164
2	64646	58.44	976.14063161147
2	64647	58.45	976.27952061129
2	64666	58.46	976.41840961112
2	64667	58.47	976.55729861095
2	64668	58.48	976.69618761077
2	64669	58.49	976.8350766106
2	64670	58.5	976.97396561043
2	64673	58.51	977.11285461025
2	64674	58.52	977.25174361008
2	64693	58.53	977.39063260991
2	64694	58.54	977.52952160974
2	64695	58.55	977.66841060957
2	64714	58.56	977.8072996094
2	64715	58.57	977.94618860923
2	64716	58.58	978.08507760906
2	64717	58.59	978.22396660889
2	64718	58.6	978.36285560872
2	64721	58.61	978.50174460855
2	64722	58.62	978.64063360838
2	64741	58.63	978.77952260821
2	64742	58.64	978.91841160804
2	64743	58.65	979.05730060787
2	64762	58.66	979.1961896077
2	64763	58.67	979.33507860753
2	64764	58.68	979.47396760736
2	64765	58.69	979.6128566072
2	64766	58.7	979.75174560703
2	64769	58.71	979.89063460686
2	64770	58.72	980.0295236067
2	64789	58.73	980.16841260653
2	64790	58.74	980.30730160636
2	64791	58.75	980.4461906062
2	64810	58.76	980.58507960603
2	64811	58.77	980.72396860587
2	64812	58.78	980.8628576057
2	64813	58.79	981.00174660554
2	64814	58.8	981.14063560537
2	64817	58.81	981.27952460521
2	64818	58.82	981.41841360504
2	64837	58.83	981.55730260488
2	64838	58.84	981.69619160471
2	64839	58.85	981.83508060455
2	64858	58.86	981.97396960439
2	64859	58.87	982.11285860422
2	64860	58.88	982.25174760406
2	64861	58.89	982.3906366039
2	64862	58.9	982.52952560374
2	64865	58.91	982.66841460358
2	64866	58.92	982.80730360341
2	64885	58.93	982.94619260325
2	64886	58.94	983.08508160309
2	64887	58.95	983.22397060293
2	64906	58.96	983.36285960277
2	64907	58.97	983.50174860261
2	64908	58.98	983.64063760245
2	64909	58.99	983.77952660229
2	64912	59	983.91841560213
2	64915	59.01	984.05730460197
2	64916	59.02	984.19619360181
2	64935	59.03	984.33508260165
2	64936	59.04	984.47397160149
2	64937	59.05	984.61286060133
2	64956	59.06	984.75174960118
2	64957	59.07	984.89063860102
2	64958	59.08	985.02952760086
2	64959	59.09	985.1684166007
2	64960	59.1	985.30730560055
2	64963	59.11	985.44619460039
2	64964	59.12	985.58508360023
2	64983	59.13	985.72397260008
2	64984	59.14	985.86286159992
2	64985	59.15	986.00175059976
2	65004	59.16	986.14063959961
2	65005	59.17	986.27952859945
2	65006	59.18	986.4184175993
2	65007	59.19	986.55730659914
2	65008	59.2	986.69619559899
2	65011	59.21	986.83508459883
2	65012	59.22	986.97397359868
2	65031	59.23	987.11286259852
2	65032	59.24	987.25175159837
2	65033	59.25	987.39064059822
2	65052	59.26	987.52952959806
2	65053	59.27	987.66841859791
2	65054	59.28	987.80730759776
2	65055	59.29	987.94619659761
2	65056	59.3	988.08508559745
2	65059	59.31	988.2239745973
2	65060	59.32	988.36286359715
2	65079	59.33	988.501752597
2	65080	59.34	988.64064159685
2	65081	59.35	988.77953059669
2	65100	59.36	988.91841959654
2	65101	59.37	989.05730859639
2	65102	59.38	989.19619759624
2	65103	59.39	989.33508659609
2	65104	59.4	989.47397559594
2	65107	59.41	989.61286459579
2	65108	59.42	989.75175359564
2	65127	59.43	989.89064259549
2	65128	59.44	990.02953159534
2	65129	59.45	990.1684205952
2	65148	59.46	990.30730959505
2	65149	59.47	990.4461985949
2	65150	59.48	990.58508759475
2	65151	59.49	990.7239765946
2	65152	59.5	990.86286559446
2	65155	59.51	991.00175459431
2	65156	59.52	991.14064359416
2	65175	59.53	991.27953259401
2	65176	59.54	991.41842159387
2	65177	59.55	991.55731059372
2	65196	59.56	991.69619959357
2	65197	59.57	991.83508859343
2	65198	59.58	991.97397759328
2	65199	59.59	992.11286659314
2	65200	59.6	992.25175559299
2	65203	59.61	992.39064459285
2	65204	59.62	992.5295335927
2	65223	59.63	992.66842259256
2	65224	59.64	992.80731159241
2	65225	59.65	992.94620059227
2	65244	59.66	993.08508959212
2	65245	59.67	993.22397859198
2	65246	59.68	993.36286759183
2	65247	59.69	993.50175659169
2	65248	59.7	993.64064559155
2	65251	59.71	993.77953459141
2	65252	59.72	993.91842359126
2	65271	59.73	994.05731259112
2	65272	59.74	994.19620159098
2	65273	59.75	994.33509059084
2	65292	59.76	994.47397959069
2	65293	59.77	994.61286859055
2	65294	59.78	994.75175759041
2	65295	59.79	994.89064659027
2	65296	59.8	995.02953559013
2	65299	59.81	995.16842458999
2	65300	59.82	995.30731358985
2	65319	59.83	995.44620258971
2	65320	59.84	995.58509158957
2	65321	59.85	995.72398058943
2	65340	59.86	995.86286958929
2	65341	59.87	996.00175858915
2	65342	59.88	996.14064758901
2	65343	59.89	996.27953658887
2	65344	59.9	996.41842558873
2	65347	59.91	996.55731458859
2	65348	59.92	996.69620358845
2	65367	59.93	996.83509258832
2	65368	59.94	996.97398158818
2	65369	59.95	997.11287058804
2	65388	59.96	997.2517595879
2	65389	59.97	997.39064858777
2	65390	59.98	997.52953758763
2	65391	59.99	997.66842658749
2	65394	60	997.80731558736
2	65397	60.01	997.94620458722
2	65398	60.02	998.08509358708
2	65417	60.03	998.22398258695
2	65418	60.04	998.36287158681
2	65419	60.05	998.50176058668
2	65438	60.06	998.64064958654
2	65439	60.07	998.77953858641
2	65440	60.08	998.91842758627
2	65441	60.09	999.05731658614
2	65442	60.1	999.196205586
2	65445	60.11	999.33509458587
2	65446	60.12	999.47398358573
2	65465	60.13	999.6128725856
2	65466	60.14	999.75176158547
2	65467	60.15	999.89065058533
2	65486	60.16	1000.0295395852
2	65487	60.17	1000.1684285851
2	65488	60.18	1000.3073175849
2	65489	60.19	1000.4462065848
2	65490	60.2	1000.5850955847
2	65493	60.21	1000.7239845845
2	65494	60.22	1000.8628735844
2	65513	60.23	1001.0017625843
2	65514	60.24	1001.1406515841
2	65515	60.25	1001.279540584
2	65534	60.26	1001.4184295839
2	65535	60.27	1001.5573185837
2	65536	60.28	1001.6962075836
2	65537	60.29	1001.8350965835
2	65538	60.3	1001.9739855834
2	65541	60.31	1002.1128745832
2	65542	60.32	1002.2517635831
2	65561	60.33	1002.390652583
2	65562	60.34	1002.5295415828
2	65563	60.35	1002.6684305827
2	65582	60.36	1002.8073195826
2	65583	60.37	1002.9462085824
2	65584	60.38	1003.0850975823
2	65585	60.39	1003.2239865822
2	65586	60.4	1003.3628755821
2	65589	60.41	1003.5017645819
2	65590	60.42	1003.6406535818
2	65609	60.43	1003.7795425817
2	65610	60.44	1003.9184315816
2	65611	60.45	1004.0573205814
2	65630	60.46	1004.1962095813
2	65631	60.47	1004.3350985812
2	65632	60.48	1004.473987581
2	65633	60.49	1004.6128765809
2	65634	60.5	1004.7517655808
2	65637	60.51	1004.8906545807
2	65638	60.52	1005.0295435805
2	65657	60.53	1005.1684325804
2	65658	60.54	1005.3073215803
2	65659	60.55	1005.4462105802
2	65678	60.56	1005.58509958
2	65679	60.57	1005.7239885799
2	65680	60.58	1005.8628775798
2	65681	60.59	1006.0017665797
2	65682	60.6	1006.1406555795
2	65685	60.61	1006.2795445794
2	65686	60.62	1006.4184335793
2	65705	60.63	1006.5573225792
2	65706	60.64	1006.696211579
2	65707	60.65	1006.8351005789
2	65726	60.66	1006.9739895788
2	65727	60.67	1007.1128785787
2	65728	60.68	1007.2517675786
2	65729	60.69	1007.3906565784
2	65730	60.7	1007.5295455783
2	65733	60.71	1007.6684345782
2	65734	60.72	1007.8073235781
2	65753	60.73	1007.9462125779
2	65754	60.74	1008.0851015778
2	65755	60.75	1008.2239905777
2	65774	60.76	1008.3628795776
2	65775	60.77	1008.5017685775
2	65776	60.78	1008.6406575773
2	65777	60.79	1008.7795465772
2	65778	60.8	1008.9184355771
2	65781	60.81	1009.057324577
2	65782	60.82	1009.1962135769
2	65801	60.83	1009.3351025767
2	65802	60.84	1009.4739915766
2	65803	60.85	1009.6128805765
2	65822	60.86	1009.7517695764
2	65823	60.87	1009.8906585763
2	65824	60.88	1010.0295475761
2	65825	60.89	1010.168436576
2	65826	60.9	1010.3073255759
2	65829	60.91	1010.4462145758
2	65830	60.92	1010.5851035757
2	65849	60.93	1010.7239925755
2	65850	60.94	1010.8628815754
2	65851	60.95	1011.0017705753
2	65870	60.96	1011.1406595752
2	65871	60.97	1011.2795485751
2	65872	60.98	1011.418437575
2	65873	60.99	1011.5573265748
2	65876	61	1011.6962155747
2	65879	61.01	1011.8351045746
2	65880	61.02	1011.9739935745
2	65899	61.03	1012.1128825744
2	65900	61.04	1012.2517715743
2	65901	61.05	1012.3906605741
2	65920	61.06	1012.529549574
2	65921	61.07	1012.6684385739
2	65922	61.08	1012.8073275738
2	65923	61.09	1012.9462165737
2	65924	61.1	1013.0851055736
2	65927	61.11	1013.2239945734
2	65928	61.12	1013.3628835733
2	65947	61.13	1013.5017725732
2	65948	61.14	1013.6406615731
2	65949	61.15	1013.779550573
2	65968	61.16	1013.9184395729
2	65969	61.17	1014.0573285728
2	65970	61.18	1014.1962175726
2	65971	61.19	1014.3351065725
2	65972	61.2	1014.4739955724
2	65975	61.21	1014.6128845723
2	65976	61.22	1014.7517735722
2	65995	61.23	1014.8906625721
2	65996	61.24	1015.029551572
2	65997	61.25	1015.1684405719
2	66016	61.26	1015.3073295717
2	66017	61.27	1015.4462185716
2	66018	61.28	1015.5851075715
2	66019	61.29	1015.7239965714
2	66020	61.3	1015.8628855713
2	66023	61.31	1016.0017745712
2	66024	61.32	1016.1406660221
2	66035	61.33	1016.2795647778
2	66036	61.34	1016.4184755972
2	66037	61.35	1016.5574031456
2	66038	61.36	1016.6963519969
2	66039	61.37	1016.8353266355
2	66040	61.38	1016.9743314577
2	66041	61.39	1017.1133707735
2	66042	61.4	1017.2524488086
2	66044	61.41	1017.3915697058
2	66045	61.42	1017.5307375265
2	66056	61.43	1017.6699562528
2	66057	61.44	1017.8092297883
2	66058	61.45	1017.9485619604
2	66059	61.46	1018.0879565212
2	66060	61.47	1018.2274171495
2	66061	61.48	1018.3669474518
2	66062	61.49	1018.5065509638
2	66063	61.5	1018.646231152
2	66065	61.51	1018.785991415
2	66066	61.52	1018.9258350845
2	66077	61.53	1019.0657654273
2	66078	61.54	1019.2057856456
2	66079	61.55	1019.3458988793
2	66080	61.56	1019.4861082064
2	66081	61.57	1019.6264166448
2	66082	61.58	1019.766827153
2	66083	61.59	1019.9073426316
2	66084	61.6	1020.0479659244
2	66086	61.61	1020.1886998192
2	66087	61.62	1020.3295470495
2	66098	61.63	1020.4705102949
2	66099	61.64	1020.6115921824
2	66100	61.65	1020.7527952879
2	66101	61.66	1020.8941221364
2	66102	61.67	1021.0355752036
2	66103	61.68	1021.1771569165
2	66104	61.69	1021.3188696547
2	66105	61.7	1021.4607157509
2	66107	61.71	1021.6026974923
2	66108	61.72	1021.7448171211
2	66119	61.73	1021.8870768356
2	66120	61.74	1022.029478791
2	66121	61.75	1022.1720251002
2	66122	61.76	1022.3147178347
2	66123	61.77	1022.4575590254
2	66124	61.78	1022.6005506634
2	66125	61.79	1022.7436947006
2	66126	61.8	1022.8869930508
2	66128	61.81	1023.0304475902
2	66129	61.82	1023.1740601582
2	66140	61.83	1023.3178325583
2	66141	61.84	1023.4617665583
2	66142	61.85	1023.6058638917
2	66143	61.86	1023.7501262577
2	66144	61.87	1023.8945553225
2	66145	61.88	1024.0391527193
2	66146	61.89	1024.1839200495
2	66147	61.9	1024.328858883
2	66149	61.91	1024.473970759
2	66150	61.92	1024.6192571865
2	66161	61.93	1024.7647196448

