version 3
run OvertakeNoGui-333-20241104-10:07:43-93040
attr configname OvertakeNoGui
attr datetime 20241104-10:07:43
attr datetimef 20241104-100743
attr experiment OvertakeNoGui
attr inifile omnetpp.ini
attr iterationvars "$leaderHeadway=1.2, $leaderSpeed=50, $controller=0, $pCSpeed=60, $pDeltaC=506"
attr iterationvarsd leaderHeadway=1.2/leaderSpeed=50/controller=0/pCSpeed=60/pDeltaC=506
attr iterationvarsf leaderHeadway=1.2,leaderSpeed=50,controller=0,pCSpeed=60,pDeltaC=506-
attr measurement "$leaderHeadway=1.2, $leaderSpeed=50, $controller=0, $pCSpeed=60, $pDeltaC=506"
attr network Overtake
attr processid 93040
attr repetition 0
attr replication #0
attr resultdir results
attr runnumber 333
attr seedset 0
itervar controller 0
itervar leaderHeadway 1.2
itervar leaderSpeed 50
itervar pCSpeed 60
itervar pDeltaC 506
config image-path ../../../../veins/images;../../images
config *.manager.command "\"sumo\""
config *.manager.ignoreGuiCommands true
config *.node[*].scenario_type "\"OvertakeScenario\""
config output-vector-file results/OvertakeNoGui_60_506_0.vec
config output-scalar-file results/OvertakeNoGui_60_506_0.sca
config cmdenv-express-mode false
config cmdenv-autoflush true
config cmdenv-status-frequency 10s
config num-rngs 6
config cmdenv-output-file log.txt
config cmdenv-redirect-output true
config network Overtake
config debug-on-errors true
config print-undisposed true
config *.playgroundSizeX 65000m
config *.playgroundSizeY 25000m
config *.playgroundSizeZ 50m
config sim-time-limit "360 s"
config *.annotations.draw false
config *.obstacles.debug false
config *.world.useTorus false
config *.world.use2D false
config *.manager.updateInterval 0.01s
config *.manager.host "\"localhost\""
config *.manager.moduleType "\"vtypeauto=org.car2x.plexe.PlatoonCar vtypehuman=0\""
config *.manager.moduleName "\"vtypeauto=node vtypehuman=0\""
config *.manager.moduleDisplayString "\"\""
config *.manager.autoShutdown true
config *.manager.margin 25
config *.manager.order -1
config *.connectionManager.sendDirect true
config *.connectionManager.maxInterfDist 2600m
config *.connectionManager.drawMaxIntfDist false
config *.**.nic.mac1609_4.useServiceChannel false
config *.**.nic.mac1609_4.txPower 100mW
config *.**.nic.mac1609_4.bitrate 6Mbps
config *.**.nic.mac1609_4.useAcks true
config *.**.nic.mac1609_4.ackErrorRate 0.0
config *.**.nic.mac1609_4.frameErrorRate 0.0
config *.**.nic.phy80211p.minPowerLevel -94dBm
config *.**.nic.phy80211p.maxTXPower 100mW
config *.**.nic.phy80211p.useNoiseFloor true
config *.**.nic.phy80211p.noiseFloor -95dBm
config *.**.nic.phy80211p.decider "xmldoc(\"config.xml\")"
config *.**.nic.phy80211p.analogueModels "xmldoc(\"config.xml\")"
config *.**.nic.phy80211p.usePropagationDelay true
config *.node[*].mobility.x 0
config *.node[*].mobility.y 0
config *.node[*].mobility.z 1.895
config *.shockwave[*].mobility.x 0
config *.shockwave[*].mobility.y 0
config *.shockwave[*].mobility.z 1.895
config seed-set 0
config **.seed 0
config *.node[*].prot.rng-0 2
config *.node[*].appl.rng-0 3
config *.node[*].scenario.rng-0 4
config *.manager.configFile "\"./sumocfg/overtake.sumo.cfg\""
config *.manager.launchConfig "xmldoc(\"./sumocfg/overtake.launchd.xml\")"
config *.node[*].helper_type "\"PositionHelper\""
config *.node[*].scenario.caccC1 0.5
config *.node[*].scenario.caccXi 1
config *.node[*].scenario.caccOmegaN "0.2 Hz"
config *.node[*].scenario.caccSpacing "5 m"
config *.node[*].scenario.engineTau "0.5 s"
config *.node[*].scenario.ploegH "0.5 s"
config *.node[*].scenario.ploegKp 0.2
config *.node[*].scenario.ploegKd 0.7
config *.node[*].scenario.useRealisticEngine false
config *.node[*].scenario.targetController "\"CACC\""
config *.node[*].scenario.accHeadway "0.1 s"
config *.node[*].scenario.leaderHeadway "1.2 s"
config *.node[*].scenario.leaderSpeed "50 kmph"
config *.node[*].appl_type "\"OvertakeApp\""
config *.node[*].appl.*.scalar-recording true
config *.node[*].appl.*.vector-recording true
config *.node[*].appl.overtakeManeuver "\"OvertakeManeuver\""
config *.node[*].protocol_type "\"SimplePlatooningBeaconing\""
config *.node[*].prot.*.scalar-recording true
config *.node[*].prot.*.vector-recording true
config *.node[*].prot.beaconingInterval "0.1 s"
config *.node[*].prot.priority 4
config *.node[*].prot.packetSize 200
config *.node[*].prot.useControllerAcceleration true
config **.traffic_type "\"OvertakeTrafficManager\""
config **.traffic.platoonInsertTime "0.1 s"
config **.traffic.platooningVType "\"vtypeauto\""
config **.numericController 0
config **.traffic.platoonInsertDistance 5m
config **.traffic.platoonInsertHeadway 0s
config **.traffic.platoonLeaderHeadway 1.2s
config **.traffic.platoonASpeed 50kmph
config **.traffic.platoonBSpeed 100kmph
config **.traffic.platoonCSpeed 60kmph
config **.traffic.platoonSizeA 2
config **.traffic.platoonSizeB 1
config **.traffic.platoonSizeC 1
config **.traffic.initialPositionDeltaA 150
config **.traffic.initialPositionDeltaB 50
config **.traffic.initialPositionDeltaC 506
config **.traffic.controller "\"CACC\""
config **.scalar-recording true
config **.vector-recording true

vector 0 Overtake.node[0].mobility posx ETV
vector 1 Overtake.node[0].mobility posy ETV
vector 2 Overtake.node[1].mobility posx ETV
vector 3 Overtake.node[1].mobility posy ETV
vector 4 Overtake.node[2].mobility posx ETV
vector 5 Overtake.node[2].mobility posy ETV
vector 6 Overtake.node[3].mobility posx ETV
vector 7 Overtake.node[3].mobility posy ETV
vector 8 Overtake.node[0].mobility speed ETV
vector 9 Overtake.node[1].mobility speed ETV
vector 10 Overtake.node[2].mobility speed ETV
vector 11 Overtake.node[3].mobility speed ETV
vector 12 Overtake.node[0].mobility acceleration ETV
vector 13 Overtake.node[0].mobility co2emission ETV
vector 14 Overtake.node[1].mobility acceleration ETV
vector 15 Overtake.node[1].mobility co2emission ETV
vector 16 Overtake.node[2].mobility acceleration ETV
vector 17 Overtake.node[2].mobility co2emission ETV
vector 18 Overtake.node[3].mobility acceleration ETV
vector 19 Overtake.node[3].mobility co2emission ETV
vector 20 Overtake.node[0].appl distance ETV
vector 21 Overtake.node[0].appl relativeSpeed ETV
vector 22 Overtake.node[0].appl nodeId ETV
vector 23 Overtake.node[0].appl acceleration ETV
vector 24 Overtake.node[0].appl controllerAcceleration ETV
vector 25 Overtake.node[0].appl speed ETV
vector 26 Overtake.node[0].appl posx ETV
vector 27 Overtake.node[0].appl posy ETV
vector 28 Overtake.node[1].appl distance ETV
vector 29 Overtake.node[1].appl relativeSpeed ETV
vector 30 Overtake.node[1].appl nodeId ETV
vector 31 Overtake.node[1].appl acceleration ETV
vector 32 Overtake.node[1].appl controllerAcceleration ETV
vector 33 Overtake.node[1].appl speed ETV
vector 34 Overtake.node[1].appl posx ETV
vector 35 Overtake.node[1].appl posy ETV
vector 36 Overtake.node[2].appl distance ETV
vector 37 Overtake.node[2].appl relativeSpeed ETV
vector 38 Overtake.node[2].appl nodeId ETV
vector 39 Overtake.node[2].appl acceleration ETV
vector 40 Overtake.node[2].appl controllerAcceleration ETV
vector 41 Overtake.node[2].appl speed ETV
vector 42 Overtake.node[2].appl posx ETV
vector 43 Overtake.node[2].appl posy ETV
vector 44 Overtake.node[3].appl distance ETV
vector 45 Overtake.node[3].appl relativeSpeed ETV
vector 46 Overtake.node[3].appl nodeId ETV
vector 47 Overtake.node[3].appl acceleration ETV
vector 48 Overtake.node[3].appl controllerAcceleration ETV
vector 49 Overtake.node[3].appl speed ETV
vector 50 Overtake.node[3].appl posx ETV
vector 51 Overtake.node[3].appl posy ETV
vector 52 Overtake.node[1].prot leaderDelay ETV
vector 53 Overtake.node[1].prot leaderDelayId ETV
vector 54 Overtake.node[1].prot frontDelay ETV
vector 55 Overtake.node[1].prot frontDelayId ETV
vector 56 Overtake.node[0].prot nodeId ETV
vector 57 Overtake.node[0].prot busyTime ETV
vector 58 Overtake.node[0].prot collisions ETV
vector 59 Overtake.node[1].prot nodeId ETV
vector 60 Overtake.node[1].prot busyTime ETV
vector 61 Overtake.node[1].prot collisions ETV
vector 62 Overtake.node[2].prot nodeId ETV
vector 63 Overtake.node[2].prot busyTime ETV
vector 64 Overtake.node[2].prot collisions ETV
vector 65 Overtake.node[3].prot nodeId ETV
vector 66 Overtake.node[3].prot busyTime ETV
vector 67 Overtake.node[3].prot collisions ETV
48	26	0.21	-0.00327777
48	176	0.31	-0.00320128
48	326	0.41	-0.00308111
48	476	0.51	-0.00292728
48	626	0.61	-0.00274857
48	776	0.71	-0.00255267
48	926	0.81	-0.00234618
48	1076	0.91	-0.00213471
48	1230	1.01	-0.00192294
48	1381	1.11	-0.00171473
48	1532	1.21	-0.00151316
48	1683	1.31	-0.00132067
48	2046	1.41	-0.00113907
48	2196	1.51	-0.000969668
48	2346	1.61	-0.000813306
48	2496	1.71	-0.000670447
48	2646	1.81	-0.000541228
48	2796	1.91	-0.000425516
48	2950	2.01	-0.00032296
48	3100	2.11	-0.000233036
48	3250	2.21	-0.000155087
48	3400	2.31	-8.83603e-05
48	3763	2.41	-3.20362e-05
48	3914	2.51	1.47438e-05
48	4064	2.61	5.28552e-05
48	4214	2.71	8.31719e-05
48	4364	2.81	0.00010655
48	4514	2.91	0.000123818
48	4668	3.01	0.000135762
48	4818	3.11	0.000143126
48	4968	3.21	0.0001466
48	5118	3.31	0.00014682
48	5269	3.41	0.000144367
48	5676	3.51	0.000139766
48	5826	3.61	0.000133484
48	5976	3.71	0.000125937
48	6126	3.81	0.000117487
48	6276	3.91	0.000108447
48	6430	4.01	9.9087e-05
48	6580	4.11	8.9631e-05
48	6730	4.21	8.02661e-05
48	6880	4.31	7.1144e-05
48	7030	4.41	6.23847e-05
48	7393	4.51	5.40801e-05
48	7544	4.61	4.62974e-05
48	7694	4.71	3.90826e-05
48	7844	4.81	3.24629e-05
48	7994	4.91	2.64502e-05
48	8148	5.01	2.10433e-05
48	8298	5.11	1.62303e-05
48	8448	5.21	1.19909e-05
48	8598	5.31	8.298e-06
48	8748	5.41	5.11973e-06
48	8899	5.51	2.42061e-06
48	9262	5.61	1.62981e-07
48	9412	5.71	-1.69199e-06
48	9562	5.81	-3.18336e-06
48	9712	5.91	-4.34971e-06
48	9866	6.01	-5.2285e-06
48	10016	6.11	-5.85565e-06
48	10166	6.21	-6.26509e-06
48	10316	6.31	-6.48862e-06
48	10466	6.41	-6.5556e-06
48	10616	6.51	-6.49297e-06
48	11023	6.61	-6.32514e-06
48	11174	6.71	-6.07401e-06
48	11324	6.81	-5.75905e-06
48	11474	6.91	-5.39738e-06
48	11628	7.01	-5.00389e-06
48	11778	7.11	-4.59133e-06
48	11928	7.21	-4.17054e-06
48	12078	7.31	-3.75054e-06
48	12228	7.41	-3.33873e-06
48	12378	7.51	-2.94102e-06
48	12529	7.61	-2.56201e-06
48	12892	7.71	-2.20513e-06
48	13042	7.81	-1.87282e-06
48	13192	7.91	-1.56662e-06
48	13346	8.01	-1.28733e-06
48	13496	8.11	-1.03512e-06
48	13646	8.21	-8.09661e-07
48	13796	8.31	-6.10182e-07
48	13946	8.41	-4.35595e-07
48	14096	8.51	-2.8456e-07
48	14246	8.61	-1.55556e-07
48	14609	8.71	-4.69367e-08
48	14760	8.81	4.30106e-08
48	14910	8.91	1.16027e-07
48	15064	9.01	1.73845e-07
48	15214	9.11	2.18158e-07
48	15364	9.21	2.50597e-07
48	15514	9.31	2.72714e-07
48	15664	9.41	2.85966e-07
48	15814	9.51	2.91708e-07
48	15964	9.61	2.91187e-07
48	16115	9.71	2.85537e-07
48	16522	9.81	2.7578e-07
48	16672	9.91	2.6283e-07
48	16826	10.01	2.47492e-07
48	16976	10.11	2.30471e-07
48	17126	10.21	2.12374e-07
48	17276	10.31	1.93719e-07
48	17426	10.41	1.74941e-07
48	17576	10.51	1.56399e-07
48	17726	10.61	1.38382e-07
48	17876	10.71	1.21121e-07
48	18239	10.81	1.04788e-07
48	18390	10.91	8.95096e-08
48	18544	11.01	7.53708e-08
48	18694	11.11	6.24201e-08
48	18844	11.21	5.06766e-08
48	18994	11.31	4.01339e-08
48	19144	11.41	3.07654e-08
48	19294	11.51	2.25281e-08
48	19444	11.61	1.53669e-08
48	19594	11.71	9.21609e-09
48	19745	11.81	4.00533e-09
48	20108	11.91	-3.41061e-10
48	20262	12.01	-3.90088e-09
48	20412	12.11	-6.75087e-09
48	20562	12.21	-8.96776e-09
48	20712	12.31	-1.06258e-08
48	20862	12.41	-1.17954e-08
48	21012	12.51	-1.25432e-08
48	21162	12.61	-1.29319e-08
48	21312	12.71	-1.30186e-08
48	21462	12.81	-1.28562e-08
48	21845	12.91	-1.24924e-08
48	22000	13.01	-1.19702e-08
48	22150	13.11	-1.13268e-08
48	22300	13.21	-1.0596e-08
48	22450	13.31	-9.8062e-09
48	22600	13.41	-8.98268e-09
48	22750	13.51	-8.14602e-09
48	22900	13.61	-7.31362e-09
48	23050	13.71	-6.49933e-09
48	23200	13.81	-5.7149e-09
48	23351	13.91	-4.96883e-09
48	23762	14.01	-4.26752e-09
48	23912	14.11	-3.61595e-09
48	24062	14.21	-3.01625e-09
48	24212	14.31	-2.4702e-09
48	24362	14.41	-1.97815e-09
48	24512	14.51	-1.53904e-09
48	24662	14.61	-1.15108e-09
48	24812	14.71	-8.1215e-10
48	24962	14.81	-5.19762e-10
48	25112	14.91	-2.70362e-10
48	25266	15.01	-6.11067e-11
48	25416	15.11	1.11555e-10
48	25566	15.21	2.51177e-10
48	25716	15.31	3.61311e-10
48	25866	15.41	4.45155e-10
48	26016	15.51	5.05906e-10
48	26166	15.61	5.46763e-10
48	26316	15.71	5.70566e-10
48	26466	15.81	5.79803e-10
48	26616	15.91	5.76605e-10
48	26770	16.01	5.64171e-10
48	26920	16.11	5.43565e-10
48	27070	16.21	5.1692e-10
48	27220	16.31	4.85656e-10
48	27370	16.41	4.5155e-10
48	27520	16.51	4.15668e-10
48	27670	16.61	3.78364e-10
48	27820	16.71	3.41061e-10
48	27970	16.81	3.04468e-10
48	28120	16.91	2.6894e-10
48	28274	17.01	2.3519e-10
48	28424	17.11	2.03215e-10
48	28574	17.21	1.73017e-10
48	28724	17.31	1.45306e-10
48	28874	17.41	1.20082e-10
48	29024	17.51	9.73444e-11
48	29174	17.61	7.70939e-11
48	29324	17.71	5.8975e-11
48	29474	17.81	4.29878e-11
48	29624	17.91	2.91323e-11
48	29778	18.01	1.7053e-11
48	29928	18.11	7.10543e-12
48	30078	18.21	-1.42109e-12
48	30228	18.31	-8.52651e-12
48	30378	18.41	-1.38556e-11
48	30528	18.51	-1.81188e-11
48	30678	18.61	-2.13163e-11
48	30828	18.71	-2.34479e-11
48	30978	18.81	-2.52243e-11
48	31128	18.91	-2.59348e-11
48	31282	19.01	-2.59348e-11
48	31432	19.11	-2.55795e-11
48	31582	19.21	-2.4869e-11
48	31732	19.31	-2.38032e-11
48	31882	19.41	-2.27374e-11
48	32032	19.51	-2.13163e-11
48	32182	19.61	-1.98952e-11
48	32332	19.71	-1.84741e-11
48	32482	19.81	-1.7053e-11
48	32632	19.91	-1.56319e-11
48	32786	20.01	-1.42109e-11
48	32936	20.11	-1.27898e-11
48	33086	20.21	-1.13687e-11
48	33236	20.31	-9.9476e-12
48	33386	20.41	-8.52651e-12
48	33536	20.51	-7.10543e-12
48	33686	20.61	-5.68434e-12
48	33836	20.71	-4.26326e-12
48	33986	20.81	-2.84217e-12
48	34136	20.91	-1.77636e-12
48	34290	21.01	-7.10543e-13
48	34440	21.11	0
48	34590	21.21	1.06581e-12
48	34740	21.31	1.77636e-12
48	34890	21.41	2.4869e-12
48	35040	21.51	3.19744e-12
48	35190	21.61	3.55271e-12
48	35340	21.71	4.26326e-12
48	35490	21.81	4.61853e-12
48	35640	21.91	4.9738e-12
48	35794	22.01	5.32907e-12
48	35944	22.11	5.68434e-12
48	36094	22.21	6.03961e-12
48	36244	22.31	6.39488e-12
48	36394	22.41	6.39488e-12
48	36544	22.51	6.75016e-12
48	36694	22.61	7.10543e-12
48	36844	22.71	7.10543e-12
48	36994	22.81	7.4607e-12
48	37144	22.91	7.4607e-12
48	37298	23.01	7.4607e-12
48	37448	23.11	7.81597e-12
48	37598	23.21	7.81597e-12
48	37748	23.31	7.81597e-12
48	37898	23.41	8.17124e-12
48	38048	23.51	8.17124e-12
48	38198	23.61	8.17124e-12
48	38348	23.71	8.17124e-12
48	38498	23.81	8.17124e-12
48	38648	23.91	8.52651e-12
48	38802	24.01	8.52651e-12
48	38952	24.11	8.52651e-12
48	39102	24.21	8.52651e-12
48	39252	24.31	8.52651e-12
48	39402	24.41	8.52651e-12
48	39552	24.51	8.52651e-12
48	39702	24.61	8.52651e-12
48	39852	24.71	8.52651e-12
48	40002	24.81	8.52651e-12
48	40152	24.91	8.88178e-12
48	40306	25.01	8.88178e-12
48	40456	25.11	8.88178e-12
48	40606	25.21	8.88178e-12
48	40756	25.31	8.88178e-12
48	40906	25.41	8.88178e-12
48	41056	25.51	8.88178e-12
48	41206	25.61	8.88178e-12
48	41357	25.71	8.88178e-12
48	41507	25.81	8.88178e-12
48	41657	25.91	8.88178e-12
48	41811	26.01	8.88178e-12
48	41961	26.11	8.88178e-12
48	42111	26.21	8.88178e-12
48	42261	26.31	8.88178e-12
48	42411	26.41	8.88178e-12
48	42561	26.51	8.88178e-12
48	42711	26.61	8.88178e-12
48	42861	26.71	8.88178e-12
48	43011	26.81	8.88178e-12
48	43161	26.91	8.88178e-12
48	43315	27.01	8.88178e-12
48	43465	27.11	8.88178e-12
48	43615	27.21	8.88178e-12
48	43765	27.31	8.88178e-12
48	43915	27.41	8.88178e-12
48	44065	27.51	8.88178e-12
48	44215	27.61	8.88178e-12
48	44365	27.71	8.88178e-12
48	44515	27.81	8.88178e-12
48	44665	27.91	8.88178e-12
48	44819	28.01	8.88178e-12
48	44969	28.11	8.88178e-12
48	45119	28.21	8.88178e-12
48	45269	28.31	8.88178e-12
48	45419	28.41	8.88178e-12
48	45569	28.51	8.88178e-12
48	45719	28.61	8.88178e-12
48	45869	28.71	8.88178e-12
48	46019	28.81	8.88178e-12
48	46169	28.91	8.88178e-12
48	46323	29.01	8.88178e-12
48	46473	29.11	8.88178e-12
48	46623	29.21	8.88178e-12
48	46773	29.31	8.88178e-12
48	46923	29.41	8.88178e-12
48	47073	29.51	8.88178e-12
48	47223	29.61	8.88178e-12
48	47373	29.71	8.88178e-12
47	26	0.21	-0.000537287
47	176	0.31	-0.00102256
47	326	0.41	-0.0014023
47	476	0.51	-0.00168868
47	626	0.61	-0.00189332
47	776	0.71	-0.00202724
47	926	0.81	-0.00210073
47	1076	0.91	-0.00212335
47	1230	1.01	-0.00210382
47	1381	1.11	-0.00205006
47	1532	1.21	-0.00196919
47	1683	1.31	-0.00186754
47	2046	1.41	-0.00175064
47	2196	1.51	-0.00162335
47	2346	1.61	-0.00148981
47	2496	1.71	-0.00135354
47	2646	1.81	-0.00121748
47	2796	1.91	-0.00108402
47	2950	2.01	-0.000955094
47	3100	2.11	-0.0008322
47	3250	2.21	-0.000716459
47	3400	2.31	-0.00060866
47	3763	2.41	-0.00050931
47	3914	2.51	-0.000418674
47	4064	2.61	-0.000336812
47	4214	2.71	-0.000263615
47	4364	2.81	-0.00019884
47	4514	2.91	-0.000142136
47	4668	3.01	-9.30689e-05
47	4818	3.11	-5.11479e-05
47	4968	3.21	-1.58407e-05
47	5118	3.31	1.34077e-05
47	5269	3.41	3.7161e-05
47	5676	3.51	5.59805e-05
47	5826	3.61	7.0415e-05
47	5976	3.71	8.09934e-05
47	6126	3.81	8.82186e-05
47	6276	3.91	9.25636e-05
47	6430	4.01	9.44677e-05
47	6580	4.11	9.43354e-05
47	6730	4.21	9.25349e-05
47	6880	4.31	8.93982e-05
47	7030	4.41	8.52216e-05
47	7393	4.51	8.02667e-05
47	7544	4.61	7.47624e-05
47	7694	4.71	6.8906e-05
47	7844	4.81	6.28658e-05
47	7994	4.91	5.67832e-05
47	8148	5.01	5.07749e-05
47	8298	5.11	4.49353e-05
47	8448	5.21	3.93389e-05
47	8598	5.31	3.40422e-05
47	8748	5.41	2.90866e-05
47	8899	5.51	2.44995e-05
47	9262	5.61	2.02971e-05
47	9412	5.71	1.64857e-05
47	9562	5.81	1.30632e-05
47	9712	5.91	1.00213e-05
47	9866	6.01	7.34621e-06
47	10016	6.11	5.0199e-06
47	10166	6.21	3.02148e-06
47	10316	6.31	1.32789e-06
47	10466	6.41	-8.52673e-08
47	10616	6.51	-1.24302e-06
47	11023	6.61	-2.17048e-06
47	11174	6.71	-2.89239e-06
47	11324	6.81	-3.43273e-06
47	11474	6.91	-3.81443e-06
47	11628	7.01	-4.05915e-06
47	11778	7.11	-4.18709e-06
47	11928	7.21	-4.21695e-06
47	12078	7.31	-4.16581e-06
47	12228	7.41	-4.04914e-06
47	12378	7.51	-3.88081e-06
47	12529	7.61	-3.67311e-06
47	12892	7.71	-3.43685e-06
47	13042	7.81	-3.18138e-06
47	13192	7.91	-2.91475e-06
47	13346	8.01	-2.64375e-06
47	13496	8.11	-2.37401e-06
47	13646	8.21	-2.11015e-06
47	13796	8.31	-1.85584e-06
47	13946	8.41	-1.61394e-06
47	14096	8.51	-1.38655e-06
47	14246	8.61	-1.17514e-06
47	14609	8.71	-9.8063e-07
47	14760	8.81	-8.03479e-07
47	14910	8.91	-6.43741e-07
47	15064	9.01	-5.01154e-07
47	15214	9.11	-3.75195e-07
47	15364	9.21	-2.65136e-07
47	15514	9.31	-1.70093e-07
47	15664	9.41	-8.90733e-08
47	15814	9.51	-2.10122e-08
47	15964	9.61	3.51985e-08
47	16115	9.71	8.06793e-08
47	16522	9.81	1.16543e-07
47	16672	9.91	1.43873e-07
47	16826	10.01	1.63713e-07
47	16976	10.11	1.77052e-07
47	17126	10.21	1.84819e-07
47	17276	10.31	1.87876e-07
47	17426	10.41	1.87014e-07
47	17576	10.51	1.82953e-07
47	17726	10.61	1.7634e-07
47	17876	10.71	1.67752e-07
47	18239	10.81	1.57697e-07
47	18390	10.91	1.46622e-07
47	18544	11.01	1.34906e-07
47	18694	11.11	1.22875e-07
47	18844	11.21	1.10801e-07
47	18994	11.31	9.89093e-08
47	19144	11.41	8.73797e-08
47	19294	11.51	7.63549e-08
47	19444	11.61	6.59412e-08
47	19594	11.71	5.62153e-08
47	19745	11.81	4.72284e-08
47	20108	11.91	3.90088e-08
47	20262	12.01	3.15662e-08
47	20412	12.11	2.48949e-08
47	20562	12.21	1.89758e-08
47	20712	12.31	1.37796e-08
47	20862	12.41	9.26974e-09
47	21012	12.51	5.40368e-09
47	21162	12.61	2.13518e-09
47	21312	12.71	-5.84421e-10
47	21462	12.81	-2.80558e-09
47	21845	12.91	-4.57696e-09
47	22000	13.01	-5.9476e-09
47	22150	13.11	-6.96545e-09
47	22300	13.21	-7.67528e-09
47	22450	13.31	-8.12008e-09
47	22600	13.41	-8.33928e-09
47	22750	13.51	-8.37019e-09
47	22900	13.61	-8.24514e-09
47	23050	13.71	-7.99538e-09
47	23200	13.81	-7.64615e-09
47	23351	13.91	-7.22231e-09
47	23762	14.01	-6.74554e-09
47	23912	14.11	-6.23395e-09
47	24062	14.21	-5.70211e-09
47	24212	14.31	-5.16245e-09
47	24362	14.41	-4.62812e-09
47	24512	14.51	-4.10623e-09
47	24662	14.61	-3.60458e-09
47	24812	14.71	-3.12887e-09
47	24962	14.81	-2.68194e-09
47	25112	14.91	-2.26805e-09
47	25266	15.01	-1.88614e-09
47	25416	15.11	-1.53975e-09
47	25566	15.21	-1.22888e-09
47	25716	15.31	-9.51061e-10
47	25866	15.41	-7.06279e-10
47	26016	15.51	-4.93117e-10
47	26166	15.61	-3.09086e-10
47	26316	15.71	-1.52767e-10
47	26466	15.81	-2.13163e-11
47	26616	15.91	8.66862e-11
47	26770	16.01	1.73728e-10
47	26920	16.11	2.41229e-10
47	27070	16.21	2.93099e-10
47	27220	16.31	3.30047e-10
47	27370	16.41	3.54206e-10
47	27520	16.51	3.68061e-10
47	27670	16.61	3.7268e-10
47	27820	16.71	3.69837e-10
47	27970	16.81	3.60956e-10
47	28120	16.91	3.47455e-10
47	28274	17.01	3.29692e-10
47	28424	17.11	3.09086e-10
47	28574	17.21	2.8777e-10
47	28724	17.31	2.63256e-10
47	28874	17.41	2.38387e-10
47	29024	17.51	2.13518e-10
47	29174	17.61	1.91491e-10
47	29324	17.71	1.70175e-10
47	29474	17.81	1.48859e-10
47	29624	17.91	1.27542e-10
47	29778	18.01	1.09424e-10
47	29928	18.11	9.166e-11
47	30078	18.21	7.56728e-11
47	30228	18.31	6.14619e-11
47	30378	18.41	4.76064e-11
47	30528	18.51	3.69482e-11
47	30678	18.61	2.62901e-11
47	30828	18.71	1.77636e-11
47	30978	18.81	1.06581e-11
47	31128	18.91	3.55271e-12
47	31282	19.01	-1.42109e-12
47	31432	19.11	-4.9738e-12
47	31582	19.21	-8.52651e-12
47	31732	19.31	-1.20792e-11
47	31882	19.41	-1.42109e-11
47	32032	19.51	-1.42109e-11
47	32182	19.61	-1.42109e-11
47	32332	19.71	-1.42109e-11
47	32482	19.81	-1.42109e-11
47	32632	19.91	-1.42109e-11
47	32786	20.01	-1.42109e-11
47	32936	20.11	-1.42109e-11
47	33086	20.21	-1.42109e-11
47	33236	20.31	-1.42109e-11
47	33386	20.41	-1.42109e-11
47	33536	20.51	-1.42109e-11
47	33686	20.61	-1.42109e-11
47	33836	20.71	-1.3145e-11
47	33986	20.81	-1.1724e-11
47	34136	20.91	-1.06581e-11
47	34290	21.01	-9.59233e-12
47	34440	21.11	-8.88178e-12
47	34590	21.21	-7.81597e-12
47	34740	21.31	-7.10543e-12
47	34890	21.41	-6.39488e-12
47	35040	21.51	-5.68434e-12
47	35190	21.61	-5.32907e-12
47	35340	21.71	-4.61853e-12
47	35490	21.81	-4.26326e-12
47	35640	21.91	-3.90799e-12
47	35794	22.01	-3.55271e-12
47	35944	22.11	-3.19744e-12
47	36094	22.21	-2.84217e-12
47	36244	22.31	-2.4869e-12
47	36394	22.41	-2.4869e-12
47	36544	22.51	-2.13163e-12
47	36694	22.61	-1.77636e-12
47	36844	22.71	-1.77636e-12
47	36994	22.81	-1.42109e-12
47	37144	22.91	-1.42109e-12
47	37298	23.01	-1.42109e-12
47	37448	23.11	-1.06581e-12
47	37598	23.21	-1.06581e-12
47	37748	23.31	-1.06581e-12
47	37898	23.41	-7.10543e-13
47	38048	23.51	-7.10543e-13
47	38198	23.61	-7.10543e-13
47	38348	23.71	-7.10543e-13
47	38498	23.81	-7.10543e-13
47	38648	23.91	-3.55271e-13
47	38802	24.01	-3.55271e-13
47	38952	24.11	-3.55271e-13
47	39102	24.21	-3.55271e-13
47	39252	24.31	-3.55271e-13
47	39402	24.41	-3.55271e-13
47	39552	24.51	-3.55271e-13
47	39702	24.61	-3.55271e-13
47	39852	24.71	-3.55271e-13
47	40002	24.81	-3.55271e-13
47	40152	24.91	0
47	40306	25.01	0
47	40456	25.11	0
47	40606	25.21	0
47	40756	25.31	0
47	40906	25.41	0
47	41056	25.51	0
47	41206	25.61	0
47	41357	25.71	0
47	41507	25.81	0
47	41657	25.91	0
47	41811	26.01	0
47	41961	26.11	0
47	42111	26.21	0
47	42261	26.31	0
47	42411	26.41	0
47	42561	26.51	0
47	42711	26.61	0
47	42861	26.71	0
47	43011	26.81	0
47	43161	26.91	0
47	43315	27.01	0
47	43465	27.11	0
47	43615	27.21	0
47	43765	27.31	0
47	43915	27.41	0
47	44065	27.51	0
47	44215	27.61	0
47	44365	27.71	0
47	44515	27.81	0
47	44665	27.91	0
47	44819	28.01	0
47	44969	28.11	0
47	45119	28.21	0
47	45269	28.31	0
47	45419	28.41	0
47	45569	28.51	0
47	45719	28.61	0
47	45869	28.71	0
47	46019	28.81	0
47	46169	28.91	0
47	46323	29.01	0
47	46473	29.11	0
47	46623	29.21	0
47	46773	29.31	0
47	46923	29.41	0
47	47073	29.51	0
47	47223	29.61	0
47	47373	29.71	0
51	26	0.21	1.6
51	176	0.31	1.6
51	326	0.41	1.6
51	476	0.51	1.6
51	626	0.61	1.6
51	776	0.71	1.6
51	926	0.81	1.6
51	1076	0.91	1.6
51	1230	1.01	1.6
51	1381	1.11	1.6
51	1532	1.21	1.6
51	1683	1.31	1.6
51	2046	1.41	1.6
51	2196	1.51	1.6
51	2346	1.61	1.6
51	2496	1.71	1.6
51	2646	1.81	1.6
51	2796	1.91	1.6
51	2950	2.01	1.6
51	3100	2.11	1.6
51	3250	2.21	1.6
51	3400	2.31	1.6
51	3763	2.41	1.6
51	3914	2.51	1.6
51	4064	2.61	1.6
51	4214	2.71	1.6
51	4364	2.81	1.6
51	4514	2.91	1.6
51	4668	3.01	1.6
51	4818	3.11	1.6
51	4968	3.21	1.6
51	5118	3.31	1.6
51	5269	3.41	1.6
51	5676	3.51	1.6
51	5826	3.61	1.6
51	5976	3.71	1.6
51	6126	3.81	1.6
51	6276	3.91	1.6
51	6430	4.01	1.6
51	6580	4.11	1.6
51	6730	4.21	1.6
51	6880	4.31	1.6
51	7030	4.41	1.6
51	7393	4.51	1.6
51	7544	4.61	1.6
51	7694	4.71	1.6
51	7844	4.81	1.6
51	7994	4.91	1.6
51	8148	5.01	1.6
51	8298	5.11	1.6
51	8448	5.21	1.6
51	8598	5.31	1.6
51	8748	5.41	1.6
51	8899	5.51	1.6
51	9262	5.61	1.6
51	9412	5.71	1.6
51	9562	5.81	1.6
51	9712	5.91	1.6
51	9866	6.01	1.6
51	10016	6.11	1.6
51	10166	6.21	1.6
51	10316	6.31	1.6
51	10466	6.41	1.6
51	10616	6.51	1.6
51	11023	6.61	1.6
51	11174	6.71	1.6
51	11324	6.81	1.6
51	11474	6.91	1.6
51	11628	7.01	1.6
51	11778	7.11	1.6
51	11928	7.21	1.6
51	12078	7.31	1.6
51	12228	7.41	1.6
51	12378	7.51	1.6
51	12529	7.61	1.6
51	12892	7.71	1.6
51	13042	7.81	1.6
51	13192	7.91	1.6
51	13346	8.01	1.6
51	13496	8.11	1.6
51	13646	8.21	1.6
51	13796	8.31	1.6
51	13946	8.41	1.6
51	14096	8.51	1.6
51	14246	8.61	1.6
51	14609	8.71	1.6
51	14760	8.81	1.6
51	14910	8.91	1.6
51	15064	9.01	1.6
51	15214	9.11	1.6
51	15364	9.21	1.6
51	15514	9.31	1.6
51	15664	9.41	1.6
51	15814	9.51	1.6
51	15964	9.61	1.6
51	16115	9.71	1.6
51	16522	9.81	1.6
51	16672	9.91	1.6
51	16826	10.01	1.6
51	16976	10.11	1.6
51	17126	10.21	1.6
51	17276	10.31	1.6
51	17426	10.41	1.6
51	17576	10.51	1.6
51	17726	10.61	1.6
51	17876	10.71	1.6
51	18239	10.81	1.6
51	18390	10.91	1.6
51	18544	11.01	1.6
51	18694	11.11	1.6
51	18844	11.21	1.6
51	18994	11.31	1.6
51	19144	11.41	1.6
51	19294	11.51	1.6
51	19444	11.61	1.6
51	19594	11.71	1.6
51	19745	11.81	1.6
51	20108	11.91	1.6
51	20262	12.01	1.6
51	20412	12.11	1.6
51	20562	12.21	1.6
51	20712	12.31	1.6
51	20862	12.41	1.6
51	21012	12.51	1.6
51	21162	12.61	1.6
51	21312	12.71	1.6
51	21462	12.81	1.6
51	21845	12.91	1.6
51	22000	13.01	1.6
51	22150	13.11	1.6
51	22300	13.21	1.6
51	22450	13.31	1.6
51	22600	13.41	1.6
51	22750	13.51	1.6
51	22900	13.61	1.6
51	23050	13.71	1.6
51	23200	13.81	1.6
51	23351	13.91	1.6
51	23762	14.01	1.6
51	23912	14.11	1.6
51	24062	14.21	1.6
51	24212	14.31	1.6
51	24362	14.41	1.6
51	24512	14.51	1.6
51	24662	14.61	1.6
51	24812	14.71	1.6
51	24962	14.81	1.6
51	25112	14.91	1.6
51	25266	15.01	1.6
51	25416	15.11	1.6
51	25566	15.21	1.6
51	25716	15.31	1.6
51	25866	15.41	1.6
51	26016	15.51	1.6
51	26166	15.61	1.6
51	26316	15.71	1.6
51	26466	15.81	1.6
51	26616	15.91	1.6
51	26770	16.01	1.6
51	26920	16.11	1.6
51	27070	16.21	1.6
51	27220	16.31	1.6
51	27370	16.41	1.6
51	27520	16.51	1.6
51	27670	16.61	1.6
51	27820	16.71	1.6
51	27970	16.81	1.6
51	28120	16.91	1.6
51	28274	17.01	1.6
51	28424	17.11	1.6
51	28574	17.21	1.6
51	28724	17.31	1.6
51	28874	17.41	1.6
51	29024	17.51	1.6
51	29174	17.61	1.6
51	29324	17.71	1.6
51	29474	17.81	1.6
51	29624	17.91	1.6
51	29778	18.01	1.6
51	29928	18.11	1.6
51	30078	18.21	1.6
51	30228	18.31	1.6
51	30378	18.41	1.6
51	30528	18.51	1.6
51	30678	18.61	1.6
51	30828	18.71	1.6
51	30978	18.81	1.6
51	31128	18.91	1.6
51	31282	19.01	1.6
51	31432	19.11	1.6
51	31582	19.21	1.6
51	31732	19.31	1.6
51	31882	19.41	1.6
51	32032	19.51	1.6
51	32182	19.61	1.6
51	32332	19.71	1.6
51	32482	19.81	1.6
51	32632	19.91	1.6
51	32786	20.01	1.6
51	32936	20.11	1.6
51	33086	20.21	1.6
51	33236	20.31	1.6
51	33386	20.41	1.6
51	33536	20.51	1.6
51	33686	20.61	1.6
51	33836	20.71	1.6
51	33986	20.81	1.6
51	34136	20.91	1.6
51	34290	21.01	1.6
51	34440	21.11	1.6
51	34590	21.21	1.6
51	34740	21.31	1.6
51	34890	21.41	1.6
51	35040	21.51	1.6
51	35190	21.61	1.6
51	35340	21.71	1.6
51	35490	21.81	1.6
51	35640	21.91	1.6
51	35794	22.01	1.6
51	35944	22.11	1.6
51	36094	22.21	1.6
51	36244	22.31	1.6
51	36394	22.41	1.6
51	36544	22.51	1.6
51	36694	22.61	1.6
51	36844	22.71	1.6
51	36994	22.81	1.6
51	37144	22.91	1.6
51	37298	23.01	1.6
51	37448	23.11	1.6
51	37598	23.21	1.6
51	37748	23.31	1.6
51	37898	23.41	1.6
51	38048	23.51	1.6
51	38198	23.61	1.6
51	38348	23.71	1.6
51	38498	23.81	1.6
51	38648	23.91	1.6
51	38802	24.01	1.6
51	38952	24.11	1.6
51	39102	24.21	1.6
51	39252	24.31	1.6
51	39402	24.41	1.6
51	39552	24.51	1.6
51	39702	24.61	1.6
51	39852	24.71	1.6
51	40002	24.81	1.6
51	40152	24.91	1.6
51	40306	25.01	1.6
51	40456	25.11	1.6
51	40606	25.21	1.6
51	40756	25.31	1.6
51	40906	25.41	1.6
51	41056	25.51	1.6
51	41206	25.61	1.6
51	41357	25.71	1.6
51	41507	25.81	1.6
51	41657	25.91	1.6
51	41811	26.01	1.6
51	41961	26.11	1.6
51	42111	26.21	1.6
51	42261	26.31	1.6
51	42411	26.41	1.6
51	42561	26.51	1.6
51	42711	26.61	1.6
51	42861	26.71	1.6
51	43011	26.81	1.6
51	43161	26.91	1.6
51	43315	27.01	1.6
51	43465	27.11	1.6
51	43615	27.21	1.6
51	43765	27.31	1.6
51	43915	27.41	1.6
51	44065	27.51	1.6
51	44215	27.61	1.6
51	44365	27.71	1.6
51	44515	27.81	1.6
51	44665	27.91	1.6
51	44819	28.01	1.6
51	44969	28.11	1.6
51	45119	28.21	1.6
51	45269	28.31	1.6
51	45419	28.41	1.6
51	45569	28.51	1.6
51	45719	28.61	1.6
51	45869	28.71	1.6
51	46019	28.81	1.6
51	46169	28.91	1.6
51	46323	29.01	1.6
51	46473	29.11	1.6
51	46623	29.21	1.6
51	46773	29.31	1.6
51	46923	29.41	1.6
51	47073	29.51	1.6
51	47223	29.61	1.6
51	47373	29.71	1.6
50	26	0.21	492.5
50	176	0.31	490.833
50	326	0.41	489.166
50	476	0.51	487.499
50	626	0.61	485.832
50	776	0.71	484.165
50	926	0.81	482.498
50	1076	0.91	480.831
50	1230	1.01	479.164
50	1381	1.11	477.497
50	1532	1.21	475.831
50	1683	1.31	474.164
50	2046	1.41	472.497
50	2196	1.51	470.83
50	2346	1.61	469.163
50	2496	1.71	467.497
50	2646	1.81	465.83
50	2796	1.91	464.163
50	2950	2.01	462.496
50	3100	2.11	460.83
50	3250	2.21	459.163
50	3400	2.31	457.496
50	3763	2.41	455.83
50	3914	2.51	454.163
50	4064	2.61	452.496
50	4214	2.71	450.83
50	4364	2.81	449.163
50	4514	2.91	447.496
50	4668	3.01	445.83
50	4818	3.11	444.163
50	4968	3.21	442.496
50	5118	3.31	440.83
50	5269	3.41	439.163
50	5676	3.51	437.496
50	5826	3.61	435.83
50	5976	3.71	434.163
50	6126	3.81	432.497
50	6276	3.91	430.83
50	6430	4.01	429.163
50	6580	4.11	427.497
50	6730	4.21	425.83
50	6880	4.31	424.163
50	7030	4.41	422.497
50	7393	4.51	420.83
50	7544	4.61	419.163
50	7694	4.71	417.497
50	7844	4.81	415.83
50	7994	4.91	414.163
50	8148	5.01	412.497
50	8298	5.11	410.83
50	8448	5.21	409.163
50	8598	5.31	407.497
50	8748	5.41	405.83
50	8899	5.51	404.163
50	9262	5.61	402.497
50	9412	5.71	400.83
50	9562	5.81	399.163
50	9712	5.91	397.497
50	9866	6.01	395.83
50	10016	6.11	394.163
50	10166	6.21	392.497
50	10316	6.31	390.83
50	10466	6.41	389.163
50	10616	6.51	387.497
50	11023	6.61	385.83
50	11174	6.71	384.163
50	11324	6.81	382.496
50	11474	6.91	380.83
50	11628	7.01	379.163
50	11778	7.11	377.496
50	11928	7.21	375.83
50	12078	7.31	374.163
50	12228	7.41	372.496
50	12378	7.51	370.83
50	12529	7.61	369.163
50	12892	7.71	367.496
50	13042	7.81	365.83
50	13192	7.91	364.163
50	13346	8.01	362.496
50	13496	8.11	360.83
50	13646	8.21	359.163
50	13796	8.31	357.496
50	13946	8.41	355.83
50	14096	8.51	354.163
50	14246	8.61	352.496
50	14609	8.71	350.83
50	14760	8.81	349.163
50	14910	8.91	347.496
50	15064	9.01	345.83
50	15214	9.11	344.163
50	15364	9.21	342.496
50	15514	9.31	340.83
50	15664	9.41	339.163
50	15814	9.51	337.496
50	15964	9.61	335.83
50	16115	9.71	334.163
50	16522	9.81	332.496
50	16672	9.91	330.83
50	16826	10.01	329.163
50	16976	10.11	327.496
50	17126	10.21	325.83
50	17276	10.31	324.163
50	17426	10.41	322.496
50	17576	10.51	320.83
50	17726	10.61	319.163
50	17876	10.71	317.496
50	18239	10.81	315.83
50	18390	10.91	314.163
50	18544	11.01	312.496
50	18694	11.11	310.83
50	18844	11.21	309.163
50	18994	11.31	307.496
50	19144	11.41	305.83
50	19294	11.51	304.163
50	19444	11.61	302.496
50	19594	11.71	300.83
50	19745	11.81	299.163
50	20108	11.91	297.496
50	20262	12.01	295.83
50	20412	12.11	294.163
50	20562	12.21	292.496
50	20712	12.31	290.83
50	20862	12.41	289.163
50	21012	12.51	287.496
50	21162	12.61	285.83
50	21312	12.71	284.163
50	21462	12.81	282.496
50	21845	12.91	280.83
50	22000	13.01	279.163
50	22150	13.11	277.496
50	22300	13.21	275.83
50	22450	13.31	274.163
50	22600	13.41	272.496
50	22750	13.51	270.83
50	22900	13.61	269.163
50	23050	13.71	267.496
50	23200	13.81	265.83
50	23351	13.91	264.163
50	23762	14.01	262.496
50	23912	14.11	260.83
50	24062	14.21	259.163
50	24212	14.31	257.496
50	24362	14.41	255.83
50	24512	14.51	254.163
50	24662	14.61	252.496
50	24812	14.71	250.83
50	24962	14.81	249.163
50	25112	14.91	247.496
50	25266	15.01	245.83
50	25416	15.11	244.163
50	25566	15.21	242.496
50	25716	15.31	240.83
50	25866	15.41	239.163
50	26016	15.51	237.496
50	26166	15.61	235.83
50	26316	15.71	234.163
50	26466	15.81	232.496
50	26616	15.91	230.83
50	26770	16.01	229.163
50	26920	16.11	227.496
50	27070	16.21	225.83
50	27220	16.31	224.163
50	27370	16.41	222.496
50	27520	16.51	220.83
50	27670	16.61	219.163
50	27820	16.71	217.496
50	27970	16.81	215.829
50	28120	16.91	214.163
50	28274	17.01	212.496
50	28424	17.11	210.829
50	28574	17.21	209.163
50	28724	17.31	207.496
50	28874	17.41	205.829
50	29024	17.51	204.163
50	29174	17.61	202.496
50	29324	17.71	200.829
50	29474	17.81	199.163
50	29624	17.91	197.496
50	29778	18.01	195.829
50	29928	18.11	194.163
50	30078	18.21	192.496
50	30228	18.31	190.829
50	30378	18.41	189.163
50	30528	18.51	187.496
50	30678	18.61	185.829
50	30828	18.71	184.163
50	30978	18.81	182.496
50	31128	18.91	180.829
50	31282	19.01	179.163
50	31432	19.11	177.496
50	31582	19.21	175.829
50	31732	19.31	174.163
50	31882	19.41	172.496
50	32032	19.51	170.829
50	32182	19.61	169.163
50	32332	19.71	167.496
50	32482	19.81	165.829
50	32632	19.91	164.163
50	32786	20.01	162.496
50	32936	20.11	160.829
50	33086	20.21	159.163
50	33236	20.31	157.496
50	33386	20.41	155.829
50	33536	20.51	154.163
50	33686	20.61	152.496
50	33836	20.71	150.829
50	33986	20.81	149.163
50	34136	20.91	147.496
50	34290	21.01	145.829
50	34440	21.11	144.163
50	34590	21.21	142.496
50	34740	21.31	140.829
50	34890	21.41	139.163
50	35040	21.51	137.496
50	35190	21.61	135.829
50	35340	21.71	134.163
50	35490	21.81	132.496
50	35640	21.91	130.829
50	35794	22.01	129.163
50	35944	22.11	127.496
50	36094	22.21	125.829
50	36244	22.31	124.163
50	36394	22.41	122.496
50	36544	22.51	120.829
50	36694	22.61	119.163
50	36844	22.71	117.496
50	36994	22.81	115.829
50	37144	22.91	114.163
50	37298	23.01	112.496
50	37448	23.11	110.829
50	37598	23.21	109.163
50	37748	23.31	107.496
50	37898	23.41	105.829
50	38048	23.51	104.163
50	38198	23.61	102.496
50	38348	23.71	100.829
50	38498	23.81	99.1626
50	38648	23.91	97.4959
50	38802	24.01	95.8293
50	38952	24.11	94.1626
50	39102	24.21	92.4959
50	39252	24.31	90.8292
50	39402	24.41	89.1626
50	39552	24.51	87.4959
50	39702	24.61	85.8292
50	39852	24.71	84.1626
50	40002	24.81	82.4959
50	40152	24.91	80.8292
50	40306	25.01	79.1626
50	40456	25.11	77.4959
50	40606	25.21	75.8292
50	40756	25.31	74.1625
50	40906	25.41	72.4959
50	41056	25.51	70.8292
50	41206	25.61	69.1625
50	41357	25.71	67.4959
50	41507	25.81	65.8292
50	41657	25.91	64.1625
50	41811	26.01	62.4959
50	41961	26.11	60.8292
50	42111	26.21	59.1625
50	42261	26.31	57.4958
50	42411	26.41	55.8292
50	42561	26.51	54.1625
50	42711	26.61	52.4958
50	42861	26.71	50.8292
50	43011	26.81	49.1625
50	43161	26.91	47.4958
50	43315	27.01	45.8292
50	43465	27.11	44.1625
50	43615	27.21	42.4958
50	43765	27.31	40.8291
50	43915	27.41	39.1625
50	44065	27.51	37.4958
50	44215	27.61	35.8291
50	44365	27.71	34.1625
50	44515	27.81	32.4958
50	44665	27.91	30.8291
50	44819	28.01	29.1625
50	44969	28.11	27.4958
50	45119	28.21	25.8291
50	45269	28.31	24.1624
50	45419	28.41	22.4958
50	45569	28.51	20.8291
50	45719	28.61	19.1624
50	45869	28.71	17.4958
50	46019	28.81	15.8291
50	46169	28.91	14.1624
50	46323	29.01	12.4958
50	46473	29.11	10.8291
50	46623	29.21	9.16241
50	46773	29.31	7.49574
50	46923	29.41	5.82907
50	47073	29.51	4.1624
50	47223	29.61	2.49573
50	47373	29.71	0.829064
49	26	0.21	16.67
49	176	0.31	16.6699
49	326	0.41	16.6698
49	476	0.51	16.6696
49	626	0.61	16.6694
49	776	0.71	16.6692
49	926	0.81	16.669
49	1076	0.91	16.6688
49	1230	1.01	16.6686
49	1381	1.11	16.6684
49	1532	1.21	16.6682
49	1683	1.31	16.668
49	2046	1.41	16.6678
49	2196	1.51	16.6677
49	2346	1.61	16.6675
49	2496	1.71	16.6674
49	2646	1.81	16.6672
49	2796	1.91	16.6671
49	2950	2.01	16.667
49	3100	2.11	16.6669
49	3250	2.21	16.6668
49	3400	2.31	16.6668
49	3763	2.41	16.6667
49	3914	2.51	16.6667
49	4064	2.61	16.6666
49	4214	2.71	16.6666
49	4364	2.81	16.6666
49	4514	2.91	16.6666
49	4668	3.01	16.6666
49	4818	3.11	16.6666
49	4968	3.21	16.6666
49	5118	3.31	16.6666
49	5269	3.41	16.6666
49	5676	3.51	16.6666
49	5826	3.61	16.6666
49	5976	3.71	16.6666
49	6126	3.81	16.6666
49	6276	3.91	16.6666
49	6430	4.01	16.6666
49	6580	4.11	16.6666
49	6730	4.21	16.6666
49	6880	4.31	16.6666
49	7030	4.41	16.6666
49	7393	4.51	16.6666
49	7544	4.61	16.6667
49	7694	4.71	16.6667
49	7844	4.81	16.6667
49	7994	4.91	16.6667
49	8148	5.01	16.6667
49	8298	5.11	16.6667
49	8448	5.21	16.6667
49	8598	5.31	16.6667
49	8748	5.41	16.6667
49	8899	5.51	16.6667
49	9262	5.61	16.6667
49	9412	5.71	16.6667
49	9562	5.81	16.6667
49	9712	5.91	16.6667
49	9866	6.01	16.6667
49	10016	6.11	16.6667
49	10166	6.21	16.6667
49	10316	6.31	16.6667
49	10466	6.41	16.6667
49	10616	6.51	16.6667
49	11023	6.61	16.6667
49	11174	6.71	16.6667
49	11324	6.81	16.6667
49	11474	6.91	16.6667
49	11628	7.01	16.6667
49	11778	7.11	16.6667
49	11928	7.21	16.6667
49	12078	7.31	16.6667
49	12228	7.41	16.6667
49	12378	7.51	16.6667
49	12529	7.61	16.6667
49	12892	7.71	16.6667
49	13042	7.81	16.6667
49	13192	7.91	16.6667
49	13346	8.01	16.6667
49	13496	8.11	16.6667
49	13646	8.21	16.6667
49	13796	8.31	16.6667
49	13946	8.41	16.6667
49	14096	8.51	16.6667
49	14246	8.61	16.6667
49	14609	8.71	16.6667
49	14760	8.81	16.6667
49	14910	8.91	16.6667
49	15064	9.01	16.6667
49	15214	9.11	16.6667
49	15364	9.21	16.6667
49	15514	9.31	16.6667
49	15664	9.41	16.6667
49	15814	9.51	16.6667
49	15964	9.61	16.6667
49	16115	9.71	16.6667
49	16522	9.81	16.6667
49	16672	9.91	16.6667
49	16826	10.01	16.6667
49	16976	10.11	16.6667
49	17126	10.21	16.6667
49	17276	10.31	16.6667
49	17426	10.41	16.6667
49	17576	10.51	16.6667
49	17726	10.61	16.6667
49	17876	10.71	16.6667
49	18239	10.81	16.6667
49	18390	10.91	16.6667
49	18544	11.01	16.6667
49	18694	11.11	16.6667
49	18844	11.21	16.6667
49	18994	11.31	16.6667
49	19144	11.41	16.6667
49	19294	11.51	16.6667
49	19444	11.61	16.6667
49	19594	11.71	16.6667
49	19745	11.81	16.6667
49	20108	11.91	16.6667
49	20262	12.01	16.6667
49	20412	12.11	16.6667
49	20562	12.21	16.6667
49	20712	12.31	16.6667
49	20862	12.41	16.6667
49	21012	12.51	16.6667
49	21162	12.61	16.6667
49	21312	12.71	16.6667
49	21462	12.81	16.6667
49	21845	12.91	16.6667
49	22000	13.01	16.6667
49	22150	13.11	16.6667
49	22300	13.21	16.6667
49	22450	13.31	16.6667
49	22600	13.41	16.6667
49	22750	13.51	16.6667
49	22900	13.61	16.6667
49	23050	13.71	16.6667
49	23200	13.81	16.6667
49	23351	13.91	16.6667
49	23762	14.01	16.6667
49	23912	14.11	16.6667
49	24062	14.21	16.6667
49	24212	14.31	16.6667
49	24362	14.41	16.6667
49	24512	14.51	16.6667
49	24662	14.61	16.6667
49	24812	14.71	16.6667
49	24962	14.81	16.6667
49	25112	14.91	16.6667
49	25266	15.01	16.6667
49	25416	15.11	16.6667
49	25566	15.21	16.6667
49	25716	15.31	16.6667
49	25866	15.41	16.6667
49	26016	15.51	16.6667
49	26166	15.61	16.6667
49	26316	15.71	16.6667
49	26466	15.81	16.6667
49	26616	15.91	16.6667
49	26770	16.01	16.6667
49	26920	16.11	16.6667
49	27070	16.21	16.6667
49	27220	16.31	16.6667
49	27370	16.41	16.6667
49	27520	16.51	16.6667
49	27670	16.61	16.6667
49	27820	16.71	16.6667
49	27970	16.81	16.6667
49	28120	16.91	16.6667
49	28274	17.01	16.6667
49	28424	17.11	16.6667
49	28574	17.21	16.6667
49	28724	17.31	16.6667
49	28874	17.41	16.6667
49	29024	17.51	16.6667
49	29174	17.61	16.6667
49	29324	17.71	16.6667
49	29474	17.81	16.6667
49	29624	17.91	16.6667
49	29778	18.01	16.6667
49	29928	18.11	16.6667
49	30078	18.21	16.6667
49	30228	18.31	16.6667
49	30378	18.41	16.6667
49	30528	18.51	16.6667
49	30678	18.61	16.6667
49	30828	18.71	16.6667
49	30978	18.81	16.6667
49	31128	18.91	16.6667
49	31282	19.01	16.6667
49	31432	19.11	16.6667
49	31582	19.21	16.6667
49	31732	19.31	16.6667
49	31882	19.41	16.6667
49	32032	19.51	16.6667
49	32182	19.61	16.6667
49	32332	19.71	16.6667
49	32482	19.81	16.6667
49	32632	19.91	16.6667
49	32786	20.01	16.6667
49	32936	20.11	16.6667
49	33086	20.21	16.6667
49	33236	20.31	16.6667
49	33386	20.41	16.6667
49	33536	20.51	16.6667
49	33686	20.61	16.6667
49	33836	20.71	16.6667
49	33986	20.81	16.6667
49	34136	20.91	16.6667
49	34290	21.01	16.6667
49	34440	21.11	16.6667
49	34590	21.21	16.6667
49	34740	21.31	16.6667
49	34890	21.41	16.6667
49	35040	21.51	16.6667
49	35190	21.61	16.6667
49	35340	21.71	16.6667
49	35490	21.81	16.6667
49	35640	21.91	16.6667
49	35794	22.01	16.6667
49	35944	22.11	16.6667
49	36094	22.21	16.6667
49	36244	22.31	16.6667
49	36394	22.41	16.6667
49	36544	22.51	16.6667
49	36694	22.61	16.6667
49	36844	22.71	16.6667
49	36994	22.81	16.6667
49	37144	22.91	16.6667
49	37298	23.01	16.6667
49	37448	23.11	16.6667
49	37598	23.21	16.6667
49	37748	23.31	16.6667
49	37898	23.41	16.6667
49	38048	23.51	16.6667
49	38198	23.61	16.6667
49	38348	23.71	16.6667
49	38498	23.81	16.6667
49	38648	23.91	16.6667
49	38802	24.01	16.6667
49	38952	24.11	16.6667
49	39102	24.21	16.6667
49	39252	24.31	16.6667
49	39402	24.41	16.6667
49	39552	24.51	16.6667
49	39702	24.61	16.6667
49	39852	24.71	16.6667
49	40002	24.81	16.6667
49	40152	24.91	16.6667
49	40306	25.01	16.6667
49	40456	25.11	16.6667
49	40606	25.21	16.6667
49	40756	25.31	16.6667
49	40906	25.41	16.6667
49	41056	25.51	16.6667
49	41206	25.61	16.6667
49	41357	25.71	16.6667
49	41507	25.81	16.6667
49	41657	25.91	16.6667
49	41811	26.01	16.6667
49	41961	26.11	16.6667
49	42111	26.21	16.6667
49	42261	26.31	16.6667
49	42411	26.41	16.6667
49	42561	26.51	16.6667
49	42711	26.61	16.6667
49	42861	26.71	16.6667
49	43011	26.81	16.6667
49	43161	26.91	16.6667
49	43315	27.01	16.6667
49	43465	27.11	16.6667
49	43615	27.21	16.6667
49	43765	27.31	16.6667
49	43915	27.41	16.6667
49	44065	27.51	16.6667
49	44215	27.61	16.6667
49	44365	27.71	16.6667
49	44515	27.81	16.6667
49	44665	27.91	16.6667
49	44819	28.01	16.6667
49	44969	28.11	16.6667
49	45119	28.21	16.6667
49	45269	28.31	16.6667
49	45419	28.41	16.6667
49	45569	28.51	16.6667
49	45719	28.61	16.6667
49	45869	28.71	16.6667
49	46019	28.81	16.6667
49	46169	28.91	16.6667
49	46323	29.01	16.6667
49	46473	29.11	16.6667
49	46623	29.21	16.6667
49	46773	29.31	16.6667
49	46923	29.41	16.6667
49	47073	29.51	16.6667
49	47223	29.61	16.6667
49	47373	29.71	16.6667
45	26	0.21	0
45	176	0.31	0
45	326	0.41	0
45	476	0.51	0
45	626	0.61	0
45	776	0.71	0
45	926	0.81	0
45	1076	0.91	0
45	1230	1.01	0
45	1381	1.11	0
45	1532	1.21	0
45	1683	1.31	0
45	2046	1.41	0
45	2196	1.51	0
45	2346	1.61	0
45	2496	1.71	0
45	2646	1.81	0
45	2796	1.91	0
45	2950	2.01	0
45	3100	2.11	0
45	3250	2.21	0
45	3400	2.31	0
45	3763	2.41	0
45	3914	2.51	0
45	4064	2.61	0
45	4214	2.71	0
45	4364	2.81	0
45	4514	2.91	0
45	4668	3.01	0
45	4818	3.11	0
45	4968	3.21	0
45	5118	3.31	0
45	5269	3.41	0
45	5676	3.51	0
45	5826	3.61	0
45	5976	3.71	0
45	6126	3.81	0
45	6276	3.91	0
45	6430	4.01	0
45	6580	4.11	0
45	6730	4.21	0
45	6880	4.31	0
45	7030	4.41	0
45	7393	4.51	0
45	7544	4.61	0
45	7694	4.71	0
45	7844	4.81	0
45	7994	4.91	0
45	8148	5.01	0
45	8298	5.11	0
45	8448	5.21	0
45	8598	5.31	0
45	8748	5.41	0
45	8899	5.51	0
45	9262	5.61	0
45	9412	5.71	0
45	9562	5.81	0
45	9712	5.91	0
45	9866	6.01	0
45	10016	6.11	0
45	10166	6.21	0
45	10316	6.31	0
45	10466	6.41	0
45	10616	6.51	0
45	11023	6.61	0
45	11174	6.71	0
45	11324	6.81	0
45	11474	6.91	0
45	11628	7.01	0
45	11778	7.11	0
45	11928	7.21	0
45	12078	7.31	0
45	12228	7.41	0
45	12378	7.51	0
45	12529	7.61	0
45	12892	7.71	0
45	13042	7.81	0
45	13192	7.91	0
45	13346	8.01	0
45	13496	8.11	0
45	13646	8.21	0
45	13796	8.31	0
45	13946	8.41	0
45	14096	8.51	0
45	14246	8.61	0
45	14609	8.71	0
45	14760	8.81	0
45	14910	8.91	0
45	15064	9.01	0
45	15214	9.11	0
45	15364	9.21	0
45	15514	9.31	0
45	15664	9.41	0
45	15814	9.51	0
45	15964	9.61	0
45	16115	9.71	0
45	16522	9.81	0
45	16672	9.91	0
45	16826	10.01	0
45	16976	10.11	0
45	17126	10.21	0
45	17276	10.31	0
45	17426	10.41	0
45	17576	10.51	0
45	17726	10.61	0
45	17876	10.71	0
45	18239	10.81	0
45	18390	10.91	0
45	18544	11.01	0
45	18694	11.11	0
45	18844	11.21	0
45	18994	11.31	0
45	19144	11.41	0
45	19294	11.51	0
45	19444	11.61	0
45	19594	11.71	0
45	19745	11.81	0
45	20108	11.91	0
45	20262	12.01	0
45	20412	12.11	0
45	20562	12.21	0
45	20712	12.31	0
45	20862	12.41	0
45	21012	12.51	0
45	21162	12.61	0
45	21312	12.71	0
45	21462	12.81	0
45	21845	12.91	0
45	22000	13.01	0
45	22150	13.11	0
45	22300	13.21	0
45	22450	13.31	0
45	22600	13.41	0
45	22750	13.51	0
45	22900	13.61	0
45	23050	13.71	0
45	23200	13.81	0
45	23351	13.91	0
45	23762	14.01	0
45	23912	14.11	0
45	24062	14.21	0
45	24212	14.31	0
45	24362	14.41	0
45	24512	14.51	0
45	24662	14.61	0
45	24812	14.71	0
45	24962	14.81	0
45	25112	14.91	0
45	25266	15.01	0
45	25416	15.11	0
45	25566	15.21	0
45	25716	15.31	0
45	25866	15.41	0
45	26016	15.51	0
45	26166	15.61	0
45	26316	15.71	0
45	26466	15.81	0
45	26616	15.91	0
45	26770	16.01	0
45	26920	16.11	0
45	27070	16.21	0
45	27220	16.31	0
45	27370	16.41	0
45	27520	16.51	0
45	27670	16.61	0
45	27820	16.71	0
45	27970	16.81	0
45	28120	16.91	0
45	28274	17.01	0
45	28424	17.11	0
45	28574	17.21	0
45	28724	17.31	0
45	28874	17.41	0
45	29024	17.51	0
45	29174	17.61	0
45	29324	17.71	0
45	29474	17.81	0
45	29624	17.91	0
45	29778	18.01	0
45	29928	18.11	0
45	30078	18.21	0
45	30228	18.31	0
45	30378	18.41	0
45	30528	18.51	0
45	30678	18.61	0
45	30828	18.71	0
45	30978	18.81	0
45	31128	18.91	0
45	31282	19.01	0
45	31432	19.11	0
45	31582	19.21	0
45	31732	19.31	0
45	31882	19.41	0
45	32032	19.51	0
45	32182	19.61	0
45	32332	19.71	0
45	32482	19.81	0
45	32632	19.91	0
45	32786	20.01	0
45	32936	20.11	0
45	33086	20.21	0
45	33236	20.31	0
45	33386	20.41	0
45	33536	20.51	0
45	33686	20.61	0
45	33836	20.71	0
45	33986	20.81	0
45	34136	20.91	0
45	34290	21.01	0
45	34440	21.11	0
45	34590	21.21	0
45	34740	21.31	0
45	34890	21.41	0
45	35040	21.51	0
45	35190	21.61	0
45	35340	21.71	0
45	35490	21.81	0
45	35640	21.91	0
45	35794	22.01	0
45	35944	22.11	0
45	36094	22.21	0
45	36244	22.31	0
45	36394	22.41	0
45	36544	22.51	0
45	36694	22.61	0
45	36844	22.71	0
45	36994	22.81	0
45	37144	22.91	0
45	37298	23.01	0
45	37448	23.11	0
45	37598	23.21	0
45	37748	23.31	0
45	37898	23.41	0
45	38048	23.51	0
45	38198	23.61	0
45	38348	23.71	0
45	38498	23.81	0
45	38648	23.91	0
45	38802	24.01	0
45	38952	24.11	0
45	39102	24.21	0
45	39252	24.31	0
45	39402	24.41	0
45	39552	24.51	0
45	39702	24.61	0
45	39852	24.71	0
45	40002	24.81	0
45	40152	24.91	0
45	40306	25.01	0
45	40456	25.11	0
45	40606	25.21	0
45	40756	25.31	0
45	40906	25.41	0
45	41056	25.51	0
45	41206	25.61	0
45	41357	25.71	0
45	41507	25.81	0
45	41657	25.91	0
45	41811	26.01	0
45	41961	26.11	0
45	42111	26.21	0
45	42261	26.31	0
45	42411	26.41	0
45	42561	26.51	0
45	42711	26.61	0
45	42861	26.71	0
45	43011	26.81	0
45	43161	26.91	0
45	43315	27.01	0
45	43465	27.11	0
45	43615	27.21	0
45	43765	27.31	0
45	43915	27.41	0
45	44065	27.51	0
45	44215	27.61	0
45	44365	27.71	0
45	44515	27.81	0
45	44665	27.91	0
45	44819	28.01	0
45	44969	28.11	0
45	45119	28.21	0
45	45269	28.31	0
45	45419	28.41	0
45	45569	28.51	0
45	45719	28.61	0
45	45869	28.71	0
45	46019	28.81	0
45	46169	28.91	0
45	46323	29.01	0
45	46473	29.11	0
45	46623	29.21	0
45	46773	29.31	0
45	46923	29.41	0
45	47073	29.51	0
45	47223	29.61	0
45	47373	29.71	0
44	26	0.21	-1
44	176	0.31	-1
44	326	0.41	-1
44	476	0.51	-1
44	626	0.61	-1
44	776	0.71	-1
44	926	0.81	-1
44	1076	0.91	-1
44	1230	1.01	-1
44	1381	1.11	-1
44	1532	1.21	-1
44	1683	1.31	-1
44	2046	1.41	-1
44	2196	1.51	-1
44	2346	1.61	-1
44	2496	1.71	-1
44	2646	1.81	-1
44	2796	1.91	-1
44	2950	2.01	-1
44	3100	2.11	-1
44	3250	2.21	-1
44	3400	2.31	-1
44	3763	2.41	-1
44	3914	2.51	-1
44	4064	2.61	-1
44	4214	2.71	-1
44	4364	2.81	-1
44	4514	2.91	-1
44	4668	3.01	-1
44	4818	3.11	-1
44	4968	3.21	-1
44	5118	3.31	-1
44	5269	3.41	-1
44	5676	3.51	-1
44	5826	3.61	-1
44	5976	3.71	-1
44	6126	3.81	-1
44	6276	3.91	-1
44	6430	4.01	-1
44	6580	4.11	-1
44	6730	4.21	-1
44	6880	4.31	-1
44	7030	4.41	-1
44	7393	4.51	-1
44	7544	4.61	-1
44	7694	4.71	-1
44	7844	4.81	-1
44	7994	4.91	-1
44	8148	5.01	-1
44	8298	5.11	-1
44	8448	5.21	-1
44	8598	5.31	-1
44	8748	5.41	-1
44	8899	5.51	-1
44	9262	5.61	-1
44	9412	5.71	-1
44	9562	5.81	-1
44	9712	5.91	-1
44	9866	6.01	-1
44	10016	6.11	-1
44	10166	6.21	-1
44	10316	6.31	-1
44	10466	6.41	-1
44	10616	6.51	-1
44	11023	6.61	-1
44	11174	6.71	-1
44	11324	6.81	-1
44	11474	6.91	-1
44	11628	7.01	-1
44	11778	7.11	-1
44	11928	7.21	-1
44	12078	7.31	-1
44	12228	7.41	-1
44	12378	7.51	-1
44	12529	7.61	-1
44	12892	7.71	-1
44	13042	7.81	-1
44	13192	7.91	-1
44	13346	8.01	-1
44	13496	8.11	-1
44	13646	8.21	-1
44	13796	8.31	-1
44	13946	8.41	-1
44	14096	8.51	-1
44	14246	8.61	-1
44	14609	8.71	-1
44	14760	8.81	-1
44	14910	8.91	-1
44	15064	9.01	-1
44	15214	9.11	-1
44	15364	9.21	-1
44	15514	9.31	-1
44	15664	9.41	-1
44	15814	9.51	-1
44	15964	9.61	-1
44	16115	9.71	-1
44	16522	9.81	-1
44	16672	9.91	-1
44	16826	10.01	-1
44	16976	10.11	-1
44	17126	10.21	-1
44	17276	10.31	-1
44	17426	10.41	-1
44	17576	10.51	-1
44	17726	10.61	-1
44	17876	10.71	-1
44	18239	10.81	-1
44	18390	10.91	-1
44	18544	11.01	-1
44	18694	11.11	-1
44	18844	11.21	-1
44	18994	11.31	-1
44	19144	11.41	-1
44	19294	11.51	-1
44	19444	11.61	-1
44	19594	11.71	-1
44	19745	11.81	-1
44	20108	11.91	-1
44	20262	12.01	-1
44	20412	12.11	-1
44	20562	12.21	-1
44	20712	12.31	-1
44	20862	12.41	-1
44	21012	12.51	-1
44	21162	12.61	-1
44	21312	12.71	-1
44	21462	12.81	-1
44	21845	12.91	-1
44	22000	13.01	-1
44	22150	13.11	-1
44	22300	13.21	-1
44	22450	13.31	-1
44	22600	13.41	-1
44	22750	13.51	-1
44	22900	13.61	-1
44	23050	13.71	-1
44	23200	13.81	-1
44	23351	13.91	-1
44	23762	14.01	-1
44	23912	14.11	-1
44	24062	14.21	-1
44	24212	14.31	-1
44	24362	14.41	-1
44	24512	14.51	-1
44	24662	14.61	-1
44	24812	14.71	-1
44	24962	14.81	-1
44	25112	14.91	-1
44	25266	15.01	-1
44	25416	15.11	-1
44	25566	15.21	-1
44	25716	15.31	-1
44	25866	15.41	-1
44	26016	15.51	-1
44	26166	15.61	-1
44	26316	15.71	-1
44	26466	15.81	-1
44	26616	15.91	-1
44	26770	16.01	-1
44	26920	16.11	-1
44	27070	16.21	-1
44	27220	16.31	-1
44	27370	16.41	-1
44	27520	16.51	-1
44	27670	16.61	-1
44	27820	16.71	-1
44	27970	16.81	-1
44	28120	16.91	-1
44	28274	17.01	-1
44	28424	17.11	-1
44	28574	17.21	-1
44	28724	17.31	-1
44	28874	17.41	-1
44	29024	17.51	-1
44	29174	17.61	-1
44	29324	17.71	-1
44	29474	17.81	-1
44	29624	17.91	-1
44	29778	18.01	-1
44	29928	18.11	-1
44	30078	18.21	-1
44	30228	18.31	-1
44	30378	18.41	-1
44	30528	18.51	-1
44	30678	18.61	-1
44	30828	18.71	-1
44	30978	18.81	-1
44	31128	18.91	-1
44	31282	19.01	-1
44	31432	19.11	-1
44	31582	19.21	-1
44	31732	19.31	-1
44	31882	19.41	-1
44	32032	19.51	-1
44	32182	19.61	-1
44	32332	19.71	-1
44	32482	19.81	-1
44	32632	19.91	-1
44	32786	20.01	-1
44	32936	20.11	-1
44	33086	20.21	-1
44	33236	20.31	-1
44	33386	20.41	-1
44	33536	20.51	-1
44	33686	20.61	-1
44	33836	20.71	-1
44	33986	20.81	-1
44	34136	20.91	-1
44	34290	21.01	-1
44	34440	21.11	-1
44	34590	21.21	-1
44	34740	21.31	-1
44	34890	21.41	-1
44	35040	21.51	-1
44	35190	21.61	-1
44	35340	21.71	-1
44	35490	21.81	-1
44	35640	21.91	-1
44	35794	22.01	-1
44	35944	22.11	-1
44	36094	22.21	-1
44	36244	22.31	-1
44	36394	22.41	-1
44	36544	22.51	-1
44	36694	22.61	-1
44	36844	22.71	-1
44	36994	22.81	-1
44	37144	22.91	-1
44	37298	23.01	-1
44	37448	23.11	-1
44	37598	23.21	-1
44	37748	23.31	-1
44	37898	23.41	-1
44	38048	23.51	-1
44	38198	23.61	-1
44	38348	23.71	-1
44	38498	23.81	-1
44	38648	23.91	-1
44	38802	24.01	-1
44	38952	24.11	-1
44	39102	24.21	-1
44	39252	24.31	-1
44	39402	24.41	-1
44	39552	24.51	-1
44	39702	24.61	-1
44	39852	24.71	-1
44	40002	24.81	-1
44	40152	24.91	-1
44	40306	25.01	-1
44	40456	25.11	-1
44	40606	25.21	-1
44	40756	25.31	-1
44	40906	25.41	-1
44	41056	25.51	-1
44	41206	25.61	-1
44	41357	25.71	-1
44	41507	25.81	-1
44	41657	25.91	-1
44	41811	26.01	-1
44	41961	26.11	-1
44	42111	26.21	-1
44	42261	26.31	-1
44	42411	26.41	-1
44	42561	26.51	-1
44	42711	26.61	-1
44	42861	26.71	-1
44	43011	26.81	-1
44	43161	26.91	-1
44	43315	27.01	-1
44	43465	27.11	-1
44	43615	27.21	-1
44	43765	27.31	-1
44	43915	27.41	-1
44	44065	27.51	-1
44	44215	27.61	-1
44	44365	27.71	-1
44	44515	27.81	-1
44	44665	27.91	-1
44	44819	28.01	-1
44	44969	28.11	-1
44	45119	28.21	-1
44	45269	28.31	-1
44	45419	28.41	-1
44	45569	28.51	-1
44	45719	28.61	-1
44	45869	28.71	-1
44	46019	28.81	-1
44	46169	28.91	-1
44	46323	29.01	-1
44	46473	29.11	-1
44	46623	29.21	-1
44	46773	29.31	-1
44	46923	29.41	-1
44	47073	29.51	-1
44	47223	29.61	-1
44	47373	29.71	-1
46	26	0.21	3
46	176	0.31	3
46	326	0.41	3
46	476	0.51	3
46	626	0.61	3
46	776	0.71	3
46	926	0.81	3
46	1076	0.91	3
46	1230	1.01	3
46	1381	1.11	3
46	1532	1.21	3
46	1683	1.31	3
46	2046	1.41	3
46	2196	1.51	3
46	2346	1.61	3
46	2496	1.71	3
46	2646	1.81	3
46	2796	1.91	3
46	2950	2.01	3
46	3100	2.11	3
46	3250	2.21	3
46	3400	2.31	3
46	3763	2.41	3
46	3914	2.51	3
46	4064	2.61	3
46	4214	2.71	3
46	4364	2.81	3
46	4514	2.91	3
46	4668	3.01	3
46	4818	3.11	3
46	4968	3.21	3
46	5118	3.31	3
46	5269	3.41	3
46	5676	3.51	3
46	5826	3.61	3
46	5976	3.71	3
46	6126	3.81	3
46	6276	3.91	3
46	6430	4.01	3
46	6580	4.11	3
46	6730	4.21	3
46	6880	4.31	3
46	7030	4.41	3
46	7393	4.51	3
46	7544	4.61	3
46	7694	4.71	3
46	7844	4.81	3
46	7994	4.91	3
46	8148	5.01	3
46	8298	5.11	3
46	8448	5.21	3
46	8598	5.31	3
46	8748	5.41	3
46	8899	5.51	3
46	9262	5.61	3
46	9412	5.71	3
46	9562	5.81	3
46	9712	5.91	3
46	9866	6.01	3
46	10016	6.11	3
46	10166	6.21	3
46	10316	6.31	3
46	10466	6.41	3
46	10616	6.51	3
46	11023	6.61	3
46	11174	6.71	3
46	11324	6.81	3
46	11474	6.91	3
46	11628	7.01	3
46	11778	7.11	3
46	11928	7.21	3
46	12078	7.31	3
46	12228	7.41	3
46	12378	7.51	3
46	12529	7.61	3
46	12892	7.71	3
46	13042	7.81	3
46	13192	7.91	3
46	13346	8.01	3
46	13496	8.11	3
46	13646	8.21	3
46	13796	8.31	3
46	13946	8.41	3
46	14096	8.51	3
46	14246	8.61	3
46	14609	8.71	3
46	14760	8.81	3
46	14910	8.91	3
46	15064	9.01	3
46	15214	9.11	3
46	15364	9.21	3
46	15514	9.31	3
46	15664	9.41	3
46	15814	9.51	3
46	15964	9.61	3
46	16115	9.71	3
46	16522	9.81	3
46	16672	9.91	3
46	16826	10.01	3
46	16976	10.11	3
46	17126	10.21	3
46	17276	10.31	3
46	17426	10.41	3
46	17576	10.51	3
46	17726	10.61	3
46	17876	10.71	3
46	18239	10.81	3
46	18390	10.91	3
46	18544	11.01	3
46	18694	11.11	3
46	18844	11.21	3
46	18994	11.31	3
46	19144	11.41	3
46	19294	11.51	3
46	19444	11.61	3
46	19594	11.71	3
46	19745	11.81	3
46	20108	11.91	3
46	20262	12.01	3
46	20412	12.11	3
46	20562	12.21	3
46	20712	12.31	3
46	20862	12.41	3
46	21012	12.51	3
46	21162	12.61	3
46	21312	12.71	3
46	21462	12.81	3
46	21845	12.91	3
46	22000	13.01	3
46	22150	13.11	3
46	22300	13.21	3
46	22450	13.31	3
46	22600	13.41	3
46	22750	13.51	3
46	22900	13.61	3
46	23050	13.71	3
46	23200	13.81	3
46	23351	13.91	3
46	23762	14.01	3
46	23912	14.11	3
46	24062	14.21	3
46	24212	14.31	3
46	24362	14.41	3
46	24512	14.51	3
46	24662	14.61	3
46	24812	14.71	3
46	24962	14.81	3
46	25112	14.91	3
46	25266	15.01	3
46	25416	15.11	3
46	25566	15.21	3
46	25716	15.31	3
46	25866	15.41	3
46	26016	15.51	3
46	26166	15.61	3
46	26316	15.71	3
46	26466	15.81	3
46	26616	15.91	3
46	26770	16.01	3
46	26920	16.11	3
46	27070	16.21	3
46	27220	16.31	3
46	27370	16.41	3
46	27520	16.51	3
46	27670	16.61	3
46	27820	16.71	3
46	27970	16.81	3
46	28120	16.91	3
46	28274	17.01	3
46	28424	17.11	3
46	28574	17.21	3
46	28724	17.31	3
46	28874	17.41	3
46	29024	17.51	3
46	29174	17.61	3
46	29324	17.71	3
46	29474	17.81	3
46	29624	17.91	3
46	29778	18.01	3
46	29928	18.11	3
46	30078	18.21	3
46	30228	18.31	3
46	30378	18.41	3
46	30528	18.51	3
46	30678	18.61	3
46	30828	18.71	3
46	30978	18.81	3
46	31128	18.91	3
46	31282	19.01	3
46	31432	19.11	3
46	31582	19.21	3
46	31732	19.31	3
46	31882	19.41	3
46	32032	19.51	3
46	32182	19.61	3
46	32332	19.71	3
46	32482	19.81	3
46	32632	19.91	3
46	32786	20.01	3
46	32936	20.11	3
46	33086	20.21	3
46	33236	20.31	3
46	33386	20.41	3
46	33536	20.51	3
46	33686	20.61	3
46	33836	20.71	3
46	33986	20.81	3
46	34136	20.91	3
46	34290	21.01	3
46	34440	21.11	3
46	34590	21.21	3
46	34740	21.31	3
46	34890	21.41	3
46	35040	21.51	3
46	35190	21.61	3
46	35340	21.71	3
46	35490	21.81	3
46	35640	21.91	3
46	35794	22.01	3
46	35944	22.11	3
46	36094	22.21	3
46	36244	22.31	3
46	36394	22.41	3
46	36544	22.51	3
46	36694	22.61	3
46	36844	22.71	3
46	36994	22.81	3
46	37144	22.91	3
46	37298	23.01	3
46	37448	23.11	3
46	37598	23.21	3
46	37748	23.31	3
46	37898	23.41	3
46	38048	23.51	3
46	38198	23.61	3
46	38348	23.71	3
46	38498	23.81	3
46	38648	23.91	3
46	38802	24.01	3
46	38952	24.11	3
46	39102	24.21	3
46	39252	24.31	3
46	39402	24.41	3
46	39552	24.51	3
46	39702	24.61	3
46	39852	24.71	3
46	40002	24.81	3
46	40152	24.91	3
46	40306	25.01	3
46	40456	25.11	3
46	40606	25.21	3
46	40756	25.31	3
46	40906	25.41	3
46	41056	25.51	3
46	41206	25.61	3
46	41357	25.71	3
46	41507	25.81	3
46	41657	25.91	3
46	41811	26.01	3
46	41961	26.11	3
46	42111	26.21	3
46	42261	26.31	3
46	42411	26.41	3
46	42561	26.51	3
46	42711	26.61	3
46	42861	26.71	3
46	43011	26.81	3
46	43161	26.91	3
46	43315	27.01	3
46	43465	27.11	3
46	43615	27.21	3
46	43765	27.31	3
46	43915	27.41	3
46	44065	27.51	3
46	44215	27.61	3
46	44365	27.71	3
46	44515	27.81	3
46	44665	27.91	3
46	44819	28.01	3
46	44969	28.11	3
46	45119	28.21	3
46	45269	28.31	3
46	45419	28.41	3
46	45569	28.51	3
46	45719	28.61	3
46	45869	28.71	3
46	46019	28.81	3
46	46169	28.91	3
46	46323	29.01	3
46	46473	29.11	3
46	46623	29.21	3
46	46773	29.31	3
46	46923	29.41	3
46	47073	29.51	3
46	47223	29.61	3
46	47373	29.71	3
67	1191	1	0
67	2911	2	0
67	4629	3	0
67	6391	4	0
67	8109	5	0
67	9827	6	0
67	11589	7	0
67	13307	8	0
67	15025	9	0
67	16787	10	0
67	18505	11	0
67	20223	12	0
67	21961	13	0
67	23723	14	0
67	25227	15	0
67	26731	16	0
67	28235	17	0
67	29739	18	0
67	31243	19	0
67	32747	20	0
67	34251	21	0
67	35755	22	0
67	37259	23	0
67	38763	24	0
67	40267	25	0
67	41772	26	0
67	43276	27	0
67	44780	28	0
67	46284	29	0
66	1191	1	0.009679
66	2911	2	0.013005622264
66	4629	3	0.013005359624
66	6391	4	0.013053114138
66	8109	5	0.013004873868
66	9827	6	0.013004635428
66	11589	7	0.013147398774
66	13307	8	0.013004164194
66	15025	9	0.013003931678
66	16787	10	0.013146701056
66	18505	11	0.013003472172
66	20223	12	0.013003245068
66	21961	13	0.013003027874
66	23723	14	0.013146208186
66	25227	15	0.01249
66	26731	16	0.01249
66	28235	17	0.01249
66	29739	18	0.01249
66	31243	19	0.01249
66	32747	20	0.01249
66	34251	21	0.01249
66	35755	22	0.01249
66	37259	23	0.01249
66	38763	24	0.01249
66	40267	25	0.01249
66	41772	26	0.01249
66	43276	27	0.01249
66	44780	28	0.01249
66	46284	29	0.01249
65	1191	1	3
65	2911	2	3
65	4629	3	3
65	6391	4	3
65	8109	5	3
65	9827	6	3
65	11589	7	3
65	13307	8	3
65	15025	9	3
65	16787	10	3
65	18505	11	3
65	20223	12	3
65	21961	13	3
65	23723	14	3
65	25227	15	3
65	26731	16	3
65	28235	17	3
65	29739	18	3
65	31243	19	3
65	32747	20	3
65	34251	21	3
65	35755	22	3
65	37259	23	3
65	38763	24	3
65	40267	25	3
65	41772	26	3
65	43276	27	3
65	44780	28	3
65	46284	29	3
19	15	0.13	2.3415824580764
19	16	0.14	2.3413325111462
19	17	0.15	2.3410875341734
19	18	0.16	2.3408474777691
19	19	0.17	2.3406122925465
19	20	0.18	2.3403819291286
19	21	0.19	2.3401563381622
19	22	0.2	2.3399354703239
19	27	0.21	2.3397192763299
19	62	0.22	2.3395077069463
19	97	0.23	2.339300712995
19	98	0.24	2.3390982453662
19	99	0.25	2.3389002550231
19	134	0.26	2.338706693012
19	135	0.27	2.3385175104692
19	136	0.28	2.3383326586314
19	137	0.29	2.3381520888386
19	138	0.3	2.3379757525455
19	177	0.31	2.3378036013286
19	212	0.32	2.3376355868924
19	247	0.33	2.3374716610749
19	248	0.34	2.3373117758576
19	249	0.35	2.3371558833716
19	284	0.36	2.3370039358989
19	285	0.37	2.3368558858868
19	286	0.38	2.3367116859497
19	287	0.39	2.3365712888729
19	288	0.4	2.3364346476247
19	327	0.41	2.3363017153561
19	362	0.42	2.3361724454098
19	397	0.43	2.3360467913255
19	398	0.44	2.3359247068422
19	399	0.45	2.3358061459074
19	434	0.46	2.3356910626793
19	435	0.47	2.3355794115339
19	436	0.48	2.3354711470676
19	437	0.49	2.335366224102
19	438	0.5	2.3352645976896
19	477	0.51	2.335166223118
19	512	0.52	2.3350710559118
19	547	0.53	2.3349790518394
19	548	0.54	2.3348901669176
19	549	0.55	2.3348043574105
19	584	0.56	2.3347215798391
19	585	0.57	2.3346417909805
19	586	0.58	2.3345649478747
19	587	0.59	2.3344910078236
19	588	0.6	2.3344199283994
19	627	0.61	2.3343516674436
19	662	0.62	2.3342861830726
19	697	0.63	2.3342234336791
19	698	0.64	2.3341633779354
19	699	0.65	2.3341059747932
19	734	0.66	2.3340511834927
19	735	0.67	2.3339989635591
19	736	0.68	2.3339492748065
19	737	0.69	2.3339020773414
19	738	0.7	2.3338573315636
19	777	0.71	2.3338149981683
19	812	0.72	2.3337750381486
19	847	0.73	2.3337374127978
19	848	0.74	2.333702083708
19	849	0.75	2.3336690127765
19	884	0.76	2.333638162204
19	885	0.77	2.3336094944964
19	886	0.78	2.3335829724675
19	887	0.79	2.3335585592379
19	888	0.8	2.3335362182406
19	927	0.81	2.3335159132172
19	962	0.82	2.3334976082219
19	997	0.83	2.3334812676204
19	998	0.84	2.3334668560927
19	999	0.85	2.3334543386333
19	1034	0.86	2.3334436805528
19	1035	0.87	2.3334348474751
19	1036	0.88	2.3334278053403
19	1037	0.89	2.3334225204076
19	1038	0.9	2.3334189592527
19	1077	0.91	2.3334170887666
19	1112	0.92	2.3334168761596
19	1147	0.93	2.3334182889603
19	1148	0.94	2.333421295014
19	1149	0.95	2.3334258624846
19	1184	0.96	2.3334319598558
19	1185	0.97	2.3334395559271
19	1186	0.98	2.3334486198167
19	1187	0.99	2.3334591209616
19	1192	1	2.3334710291148
19	1231	1.01	2.3334843143469
19	1266	1.02	2.3334989470462
19	1301	1.03	2.3335148979161
19	1302	1.04	2.3335321379775
19	1303	1.05	2.3335506385667
19	1338	1.06	2.3335703713352
19	1339	1.07	2.333591308247
19	1340	1.08	2.3336134215814
19	1341	1.09	2.333636683929
19	1342	1.1	2.333661068196
19	1382	1.11	2.3336865475959
19	1417	1.12	2.3337130956549
19	1452	1.13	2.3337406862098
19	1453	1.14	2.3337692934043
19	1454	1.15	2.3337988916902
19	1489	1.16	2.3338294558266
19	1490	1.17	2.3338609608776
19	1491	1.18	2.3338933822121
19	1492	1.19	2.333926695503
19	1493	1.2	2.3339608767237
19	1533	1.21	2.3339959021517
19	1568	1.22	2.3340317483596
19	1603	1.23	2.334068392223
19	1604	1.24	2.3341058109125
19	1605	1.25	2.3341439818947
19	1640	1.26	2.3341828829305
19	1641	1.27	2.3342224920736
19	1642	1.28	2.3342627876708
19	1643	1.29	2.3343037483564
19	1644	1.3	2.3343453530549
19	1684	1.31	2.3343875809786
19	1931	1.32	2.3344304116246
19	1966	1.33	2.334473824772
19	1967	1.34	2.3345178004849
19	1968	1.35	2.3345623191084
19	2004	1.36	2.3346073612639
19	2005	1.37	2.3346529078512
19	2006	1.38	2.3346989400484
19	2007	1.39	2.3347454393029
19	2008	1.4	2.3347923873381
19	2047	1.41	2.3348397661471
19	2082	1.42	2.33488755799
19	2117	1.43	2.3349357453959
19	2118	1.44	2.334984311158
19	2119	1.45	2.3350332383327
19	2154	1.46	2.3350825102383
19	2155	1.47	2.3351321104518
19	2156	1.48	2.3351820228081
19	2157	1.49	2.3352322313995
19	2158	1.5	2.3352827205707
19	2197	1.51	2.3353334749184
19	2232	1.52	2.3353844792899
19	2267	1.53	2.3354357187808
19	2268	1.54	2.3354871787333
19	2269	1.55	2.3355388447319
19	2304	1.56	2.3355907026054
19	2305	1.57	2.3356427384219
19	2306	1.58	2.3356949384883
19	2307	1.59	2.3357472893469
19	2308	1.6	2.3357997777771
19	2347	1.61	2.335852390787
19	2382	1.62	2.3359051156163
19	2417	1.63	2.3359579397348
19	2418	1.64	2.3360108508369
19	2419	1.65	2.3360638368415
19	2454	1.66	2.3361168858894
19	2455	1.67	2.336169986342
19	2456	1.68	2.3362231267797
19	2457	1.69	2.3362762959977
19	2458	1.7	2.3363294830063
19	2497	1.71	2.336382677028
19	2532	1.72	2.3364358674931
19	2567	1.73	2.336489044043
19	2568	1.74	2.3365421965226
19	2569	1.75	2.3365953149823
19	2604	1.76	2.3366483896735
19	2605	1.77	2.336701411046
19	2606	1.78	2.3367543697506
19	2607	1.79	2.3368072566309
19	2608	1.8	2.3368600627247
19	2647	1.81	2.3369127792625
19	2682	1.82	2.336965397665
19	2717	1.83	2.337017909537
19	2718	1.84	2.3370703066721
19	2719	1.85	2.3371225810457
19	2754	1.86	2.3371747248146
19	2755	1.87	2.3372267303162
19	2756	1.88	2.337278590065
19	2757	1.89	2.3373302967506
19	2758	1.9	2.3373818432358
19	2797	1.91	2.3374332225537
19	2832	1.92	2.3374844279084
19	2867	1.93	2.3375354526714
19	2868	1.94	2.3375862903794
19	2869	1.95	2.3376369347312
19	2904	1.96	2.3376873795891
19	2905	1.97	2.3377376189738
19	2906	1.98	2.3377876470635
19	2907	1.99	2.337837458192
19	2912	2	2.3378870468469
19	2951	2.01	2.3379364076681
19	2986	2.02	2.3379855354439
19	3021	2.03	2.3380344251123
19	3022	2.04	2.3380830717553
19	3023	2.05	2.3381314706004
19	3058	2.06	2.3381796170178
19	3059	2.07	2.3382275065162
19	3060	2.08	2.3382751347428
19	3061	2.09	2.3383224974833
19	3062	2.1	2.3383695906565
19	3101	2.11	2.3384164103153
19	3136	2.12	2.3384629526428
19	3171	2.13	2.3385092139508
19	3172	2.14	2.3385551906786
19	3173	2.15	2.3386008793926
19	3208	2.16	2.3386462767826
19	3209	2.17	2.3386913796586
19	3210	2.18	2.3387361849523
19	3211	2.19	2.3387806897146
19	3212	2.2	2.3388248911124
19	3251	2.21	2.3388687864272
19	3286	2.22	2.3389123730541
19	3321	2.23	2.3389556485002
19	3322	2.24	2.338998610383
19	3323	2.25	2.3390412564265
19	3358	2.26	2.3390835844622
19	3359	2.27	2.339125592427
19	3360	2.28	2.3391672783597
19	3361	2.29	2.3392086404026
19	3362	2.3	2.3392496767961
19	3401	2.31	2.3392903858801
19	3436	2.32	2.3393307660893
19	3471	2.33	2.3393708159568
19	3472	2.34	2.3394105341062
19	3473	2.35	2.3394499192554
19	3509	2.36	2.3394889702113
19	3722	2.37	2.3395276858709
19	3723	2.38	2.3395660652175
19	3724	2.39	2.33960410732
19	3725	2.4	2.3396418113326
19	3765	2.41	2.339679176492
19	3800	2.42	2.3397162021162
19	3835	2.43	2.3397528876043
19	3836	2.44	2.3397892324321
19	3837	2.45	2.3398252361526
19	3872	2.46	2.3398608983956
19	3873	2.47	2.3398962188652
19	3874	2.48	2.3399311973381
19	3875	2.49	2.3399658336608
19	3876	2.5	2.3400001277514
19	3915	2.51	2.3400340795976
19	3950	2.52	2.3400676892517
19	3985	2.53	2.3401009568343
19	3986	2.54	2.3401338825305
19	3987	2.55	2.3401664665879
19	4022	2.56	2.3401987093174
19	4023	2.57	2.3402306110885
19	4024	2.58	2.3402621723333
19	4025	2.59	2.3402933935402
19	4026	2.6	2.3403242752544
19	4065	2.61	2.3403548180787
19	4100	2.62	2.3403850226703
19	4135	2.63	2.3404148897379
19	4136	2.64	2.3404444200433
19	4137	2.65	2.3404736144015
19	4172	2.66	2.3405024736747
19	4173	2.67	2.340530998774
19	4174	2.68	2.3405591906607
19	4175	2.69	2.3405870503393
19	4176	2.7	2.3406145788617
19	4215	2.71	2.3406417773246
19	4250	2.72	2.340668646866
19	4285	2.73	2.3406951886691
19	4286	2.74	2.340721403954
19	4287	2.75	2.3407472939846
19	4322	2.76	2.3407728600605
19	4323	2.77	2.3407981035218
19	4324	2.78	2.3408230257461
19	4325	2.79	2.3408476281445
19	4326	2.8	2.340871912164
19	4365	2.81	2.3408958792865
19	4400	2.82	2.340919531027
19	4435	2.83	2.3409428689326
19	4436	2.84	2.3409658945794
19	4437	2.85	2.3409886095768
19	4472	2.86	2.3410110155618
19	4473	2.87	2.3410331142007
19	4474	2.88	2.3410549071856
19	4475	2.89	2.3410763962382
19	4476	2.9	2.3410975831048
19	4515	2.91	2.3411184695563
19	4550	2.92	2.3411390573874
19	4585	2.93	2.3411593484175
19	4586	2.94	2.3411793444878
19	4587	2.95	2.3411990474605
19	4622	2.96	2.3412184592193
19	4623	2.97	2.341237581669
19	4624	2.98	2.3412564167331
19	4625	2.99	2.3412749663533
19	4630	3	2.34129323249
19	4669	3.01	2.341311217119
19	4704	3.02	2.3413289222349
19	4739	3.03	2.3413463498474
19	4740	3.04	2.3413635019797
19	4741	3.05	2.3413803806699
19	4776	3.06	2.341396987971
19	4777	3.07	2.341413325948
19	4778	3.08	2.3414293966782
19	4779	3.09	2.3414452022507
19	4780	3.1	2.3414607447671
19	4819	3.11	2.3414760263364
19	4854	3.12	2.3414910490784
19	4889	3.13	2.3415058151238
19	4890	3.14	2.3415203266107
19	4891	3.15	2.341534585684
19	4926	3.16	2.3415485944976
19	4927	3.17	2.3415623552132
19	4928	3.18	2.3415758699964
19	4929	3.19	2.3415891410187
19	4930	3.2	2.3416021704585
19	4969	3.21	2.3416149604973
19	5004	3.22	2.3416275133233
19	5039	3.23	2.3416398311254
19	5040	3.24	2.341651916096
19	5041	3.25	2.3416637704308
19	5076	3.26	2.3416753963281
19	5077	3.27	2.3416867959881
19	5078	3.28	2.3416979716115
19	5079	3.29	2.3417089254001
19	5080	3.3	2.3417196595562
19	5119	3.31	2.3417301762799
19	5154	3.32	2.3417404777735
19	5189	3.33	2.3417505662385
19	5190	3.34	2.3417604438716
19	5191	3.35	2.3417701128715
19	5226	3.36	2.3417795754332
19	5227	3.37	2.3417888337484
19	5228	3.38	2.3417978900077
19	5229	3.39	2.341806746397
19	5230	3.4	2.3418154050972
19	5270	3.41	2.3418238682882
19	5561	3.42	2.3418321381437
19	5596	3.43	2.3418402168336
19	5597	3.44	2.3418481065217
19	5598	3.45	2.3418558093679
19	5634	3.46	2.3418633275242
19	5635	3.47	2.3418706631379
19	5636	3.48	2.341877818351
19	5637	3.49	2.3418847952976
19	5638	3.5	2.3418915961041
19	5677	3.51	2.3418982228918
19	5712	3.52	2.3419046777726
19	5747	3.53	2.341910962852
19	5748	3.54	2.3419170802263
19	5749	3.55	2.341923031985
19	5784	3.56	2.3419288202087
19	5785	3.57	2.3419344469684
19	5786	3.58	2.3419399143271
19	5787	3.59	2.3419452243388
19	5788	3.6	2.3419503790479
19	5827	3.61	2.3419553804882
19	5862	3.62	2.341960230684
19	5897	3.63	2.3419649316503
19	5898	3.64	2.34196948539
19	5899	3.65	2.3419738938979
19	5934	3.66	2.3419781591582
19	5935	3.67	2.3419822831427
19	5936	3.68	2.3419862678126
19	5937	3.69	2.3419901151182
19	5938	3.7	2.3419938269989
19	5977	3.71	2.3419974053821
19	6012	3.72	2.3420008521843
19	6047	3.73	2.3420041693096
19	6048	3.74	2.3420073586501
19	6049	3.75	2.3420104220855
19	6084	3.76	2.3420133614834
19	6085	3.77	2.3420161787003
19	6086	3.78	2.3420188755794
19	6087	3.79	2.3420214539513
19	6088	3.8	2.3420239156345
19	6127	3.81	2.3420262624352
19	6162	3.82	2.3420284961445
19	6197	3.83	2.3420306185411
19	6198	3.84	2.3420326313931
19	6199	3.85	2.3420345364533
19	6234	3.86	2.342036335462
19	6235	3.87	2.3420380301448
19	6236	3.88	2.3420396222161
19	6237	3.89	2.3420411133752
19	6238	3.9	2.3420425053077
19	6277	3.91	2.342043799687
19	6312	3.92	2.3420449981725
19	6347	3.93	2.3420461024087
19	6348	3.94	2.3420471140275
19	6349	3.95	2.3420480346474
19	6384	3.96	2.3420488658699
19	6385	3.97	2.3420496092872
19	6386	3.98	2.3420502664735
19	6387	3.99	2.3420508389921
19	6392	4	2.3420513283894
19	6431	4.01	2.3420517362012
19	6466	4.02	2.342052063945
19	6501	4.03	2.3420523131289
19	6502	4.04	2.342052485243
19	6503	4.05	2.3420525817647
19	6538	4.06	2.3420526041567
19	6539	4.07	2.3420525538687
19	6540	4.08	2.3420524323371
19	6541	4.09	2.3420522409813
19	6542	4.1	2.3420519812071
19	6581	4.11	2.3420516544076
19	6616	4.12	2.3420512619611
19	6651	4.13	2.342050805233
19	6652	4.14	2.3420502855724
19	6653	4.15	2.3420497043142
19	6688	4.16	2.3420490627811
19	6689	4.17	2.3420483622806
19	6690	4.18	2.342047604106
19	6691	4.19	2.3420467895371
19	6692	4.2	2.3420459198396
19	6731	4.21	2.342044996264
19	6766	4.22	2.3420440200483
19	6801	4.23	2.3420429924167
19	6802	4.24	2.3420419145794
19	6803	4.25	2.3420407877298
19	6838	4.26	2.342039613052
19	6839	4.27	2.342038391713
19	6840	4.28	2.3420371248674
19	6841	4.29	2.3420358136561
19	6842	4.3	2.3420344592058
19	6881	4.31	2.3420330626308
19	6916	4.32	2.3420316250303
19	6951	4.33	2.3420301474906
19	6952	4.34	2.3420286310844
19	6953	4.35	2.3420270768716
19	6988	4.36	2.3420254858969
19	6989	4.37	2.342023859194
19	6990	4.38	2.3420221977825
19	6991	4.39	2.3420205026694
19	6992	4.4	2.3420187748466
19	7031	4.41	2.3420170152947
19	7066	4.42	2.3420152249802
19	7101	4.43	2.3420134048588
19	7102	4.44	2.3420115558707
19	7103	4.45	2.3420096789447
19	7139	4.46	2.3420077749975
19	7352	4.47	2.3420058449314
19	7353	4.48	2.3420038896364
19	7354	4.49	2.3420019099913
19	7355	4.5	2.3419999068622
19	7395	4.51	2.3419978811014
19	7430	4.52	2.34199583355
19	7465	4.53	2.3419937650378
19	7466	4.54	2.3419916763793
19	7467	4.55	2.3419895683806
19	7502	4.56	2.3419874418339
19	7503	4.57	2.3419852975201
19	7504	4.58	2.3419831362077
19	7505	4.59	2.3419809586536
19	7506	4.6	2.3419787656041
19	7545	4.61	2.3419765577923
19	7580	4.62	2.3419743359406
19	7615	4.63	2.34197210076
19	7616	4.64	2.3419698529501
19	7617	4.65	2.3419675931998
19	7652	4.66	2.3419653221862
19	7653	4.67	2.3419630405757
19	7654	4.68	2.3419607490218
19	7655	4.69	2.3419584481697
19	7656	4.7	2.3419561386533
19	7695	4.71	2.3419538210955
19	7730	4.72	2.3419514961077
19	7765	4.73	2.3419491642917
19	7766	4.74	2.3419468262394
19	7767	4.75	2.3419444825301
19	7802	4.76	2.3419421337346
19	7803	4.77	2.3419397804141
19	7804	4.78	2.3419374231183
19	7805	4.79	2.3419350623873
19	7806	4.8	2.3419326987512
19	7845	4.81	2.3419303327304
19	7880	4.82	2.3419279648355
19	7915	4.83	2.3419255955684
19	7916	4.84	2.3419232254187
19	7917	4.85	2.3419208548703
19	7952	4.86	2.3419184843957
19	7953	4.87	2.3419161144577
19	7954	4.88	2.3419137455091
19	7955	4.89	2.3419113779975
19	7956	4.9	2.3419090123573
19	7995	4.91	2.3419066490162
19	8030	4.92	2.341904288392
19	8065	4.93	2.3419019308954
19	8066	4.94	2.341899576926
19	8067	4.95	2.3418972268776
19	8102	4.96	2.3418948811328
19	8103	4.97	2.3418925400685
19	8104	4.98	2.3418902040506
19	8105	4.99	2.3418878734391
19	8110	5	2.3418855485856
19	8149	5.01	2.3418832298319
19	8184	5.02	2.3418809175127
19	8219	5.03	2.3418786119558
19	8220	5.04	2.3418763134818
19	8221	5.05	2.3418740224015
19	8256	5.06	2.3418717390186
19	8257	5.07	2.3418694636297
19	8258	5.08	2.341867196526
19	8259	5.09	2.3418649379873
19	8260	5.1	2.3418626882903
19	8299	5.11	2.3418604477024
19	8334	5.12	2.3418582164833
19	8369	5.13	2.3418559948876
19	8370	5.14	2.3418537831625
19	8371	5.15	2.3418515815482
19	8406	5.16	2.3418493902767
19	8407	5.17	2.3418472095768
19	8408	5.18	2.3418450396675
19	8409	5.19	2.3418428807639
19	8410	5.2	2.3418407330721
19	8449	5.21	2.3418385967944
19	8484	5.22	2.3418364721243
19	8519	5.23	2.3418343592527
19	8520	5.24	2.3418322583619
19	8521	5.25	2.3418301696285
19	8556	5.26	2.3418280932237
19	8557	5.27	2.3418260293141
19	8558	5.28	2.3418239780581
19	8559	5.29	2.3418219396096
19	8560	5.3	2.3418199141185
19	8599	5.31	2.3418179017275
19	8634	5.32	2.3418159025735
19	8669	5.33	2.3418139167895
19	8670	5.34	2.3418119445026
19	8671	5.35	2.3418099858341
19	8706	5.36	2.3418080409028
19	8707	5.37	2.3418061098202
19	8708	5.38	2.3418041926921
19	8709	5.39	2.3418022896215
19	8710	5.4	2.3418004007059
19	8749	5.41	2.3417985260384
19	8784	5.42	2.3417966657077
19	8819	5.43	2.3417948197971
19	8820	5.44	2.3417929883855
19	8821	5.45	2.3417911715474
19	8856	5.46	2.3417893693534
19	8857	5.47	2.3417875818695
19	8858	5.48	2.341785809159
19	8859	5.49	2.3417840512781
19	8860	5.5	2.3417823082816
19	8900	5.51	2.3417805802199
19	9147	5.52	2.3417788671392
19	9182	5.53	2.3417771690802
19	9183	5.54	2.3417754860819
19	9184	5.55	2.3417738181791
19	9220	5.56	2.3417721654039
19	9221	5.57	2.3417705277825
19	9222	5.58	2.3417689053399
19	9223	5.59	2.3417672980951
19	9224	5.6	2.3417657060659
19	9263	5.61	2.3417641292658
19	9298	5.62	2.3417625677069
19	9333	5.63	2.3417610213954
19	9334	5.64	2.3417594903349
19	9335	5.65	2.3417579745274
19	9370	5.66	2.3417564739707
19	9371	5.67	2.3417549886611
19	9372	5.68	2.3417535185892
19	9373	5.69	2.3417520637457
19	9374	5.7	2.3417506241169
19	9413	5.71	2.3417491996862
19	9448	5.72	2.3417477904358
19	9483	5.73	2.3417463963433
19	9484	5.74	2.3417450173866
19	9485	5.75	2.3417436535376
19	9520	5.76	2.3417423047683
19	9521	5.77	2.3417409710465
19	9522	5.78	2.3417396523399
19	9523	5.79	2.3417383486118
19	9524	5.8	2.3417370598244
19	9563	5.81	2.341735785938
19	9598	5.82	2.3417345269104
19	9633	5.83	2.3417332826964
19	9634	5.84	2.3417320532493
19	9635	5.85	2.341730838521
19	9670	5.86	2.3417296384607
19	9671	5.87	2.3417284530157
19	9672	5.88	2.3417272821338
19	9673	5.89	2.3417261257568
19	9674	5.9	2.341724983828
19	9713	5.91	2.3417238562891
19	9748	5.92	2.3417227430776
19	9783	5.93	2.3417216441311
19	9784	5.94	2.3417205593856
19	9785	5.95	2.3417194887757
19	9820	5.96	2.341718432233
19	9821	5.97	2.3417173896893
19	9822	5.98	2.3417163610749
19	9823	5.99	2.3417153463184
19	9828	6	2.3417143453473
19	9867	6.01	2.341713358086
19	9902	6.02	2.3417123844603
19	9937	6.03	2.3417114243948
19	9938	6.04	2.3417104778108
19	9939	6.05	2.34170954463
19	9974	6.06	2.3417086247723
19	9975	6.07	2.3417077181563
19	9976	6.08	2.3417068247007
19	9977	6.09	2.3417059443225
19	9978	6.1	2.3417050769375
19	10017	6.11	2.3417042224611
19	10052	6.12	2.3417033808091
19	10087	6.13	2.3417025518942
19	10088	6.14	2.3417017356291
19	10089	6.15	2.3417009319249
19	10124	6.16	2.3417001406944
19	10125	6.17	2.3416993618473
19	10126	6.18	2.3416985952933
19	10127	6.19	2.3416978409421
19	10128	6.2	2.341697098702
19	10167	6.21	2.3416963684825
19	10202	6.22	2.3416956501891
19	10237	6.23	2.3416949437298
19	10238	6.24	2.3416942490114
19	10239	6.25	2.3416935659391
19	10274	6.26	2.3416928944195
19	10275	6.27	2.3416922343564
19	10276	6.28	2.3416915856549
19	10277	6.29	2.3416909482201
19	10278	6.3	2.3416903219557
19	10317	6.31	2.3416897067653
19	10352	6.32	2.3416891025524
19	10387	6.33	2.3416885092207
19	10388	6.34	2.3416879266737
19	10389	6.35	2.3416873548134
19	10424	6.36	2.3416867935419
19	10425	6.37	2.3416862427626
19	10426	6.38	2.3416857023775
19	10427	6.39	2.3416851722886
19	10428	6.4	2.3416846523977
19	10467	6.41	2.3416841426067
19	10502	6.42	2.3416836428175
19	10537	6.43	2.3416831529319
19	10538	6.44	2.341682672853
19	10539	6.45	2.3416822024814
19	10574	6.46	2.3416817417186
19	10575	6.47	2.3416812904677
19	10576	6.48	2.3416808486305
19	10577	6.49	2.3416804161086
19	10578	6.5	2.3416799928049
19	10617	6.51	2.3416795786211
19	10652	6.52	2.3416791734587
19	10687	6.53	2.341678777222
19	10688	6.54	2.3416783898126
19	10689	6.55	2.3416780111332
19	10725	6.56	2.3416776410882
19	10982	6.57	2.3416772795789
19	10983	6.58	2.341676926511
19	10984	6.59	2.3416765817871
19	10985	6.6	2.3416762453101
19	11025	6.61	2.3416759169854
19	11060	6.62	2.3416755967186
19	11095	6.63	2.3416752844123
19	11096	6.64	2.3416749799733
19	11097	6.65	2.3416746833071
19	11132	6.66	2.3416743943176
19	11133	6.67	2.341674112913
19	11134	6.68	2.3416738389986
19	11135	6.69	2.3416735724813
19	11136	6.7	2.341673313269
19	11175	6.71	2.3416730612686
19	11210	6.72	2.3416728163879
19	11245	6.73	2.3416725785365
19	11246	6.74	2.3416723476224
19	11247	6.75	2.3416721235549
19	11282	6.76	2.3416719062435
19	11283	6.77	2.341671695599
19	11284	6.78	2.341671491532
19	11285	6.79	2.3416712939518
19	11286	6.8	2.3416711027721
19	11325	6.81	2.3416709179033
19	11360	6.82	2.3416707392591
19	11395	6.83	2.3416705667515
19	11396	6.84	2.3416704002953
19	11397	6.85	2.3416702398038
19	11432	6.86	2.3416700851906
19	11433	6.87	2.3416699363717
19	11434	6.88	2.3416697932634
19	11435	6.89	2.3416696557804
19	11436	6.9	2.3416695238402
19	11475	6.91	2.3416693973589
19	11510	6.92	2.3416692762554
19	11545	6.93	2.3416691604472
19	11546	6.94	2.3416690498547
19	11547	6.95	2.3416689443951
19	11582	6.96	2.3416688439902
19	11583	6.97	2.3416687485603
19	11584	6.98	2.3416686580254
19	11585	6.99	2.3416685723087
19	11590	7	2.3416684913317
19	11629	7.01	2.3416684150173
19	11664	7.02	2.34166834329
19	11699	7.03	2.3416682760727
19	11700	7.04	2.3416682132911
19	11701	7.05	2.3416681548695
19	11736	7.06	2.3416681007337
19	11737	7.07	2.3416680508122
19	11738	7.08	2.3416680050307
19	11739	7.09	2.3416679633176
19	11740	7.1	2.3416679256
19	11779	7.11	2.3416678918077
19	11814	7.12	2.3416678618707
19	11849	7.13	2.3416678357202
19	11850	7.14	2.3416678132859
19	11851	7.15	2.3416677944992
19	11886	7.16	2.3416677792926
19	11887	7.17	2.3416677675987
19	11888	7.18	2.3416677593515
19	11889	7.19	2.3416677544837
19	11890	7.2	2.3416677529319
19	11929	7.21	2.3416677546302
19	11964	7.22	2.3416677595139
19	11999	7.23	2.3416677675211
19	12000	7.24	2.3416677785887
19	12001	7.25	2.3416677926534
19	12036	7.26	2.3416678096546
19	12037	7.27	2.3416678295305
19	12038	7.28	2.341667852222
19	12039	7.29	2.3416678776687
19	12040	7.3	2.3416679058114
19	12079	7.31	2.3416679365925
19	12114	7.32	2.3416679699542
19	12149	7.33	2.3416680058388
19	12150	7.34	2.34166804419
19	12151	7.35	2.3416680849514
19	12186	7.36	2.3416681280697
19	12187	7.37	2.3416681734883
19	12188	7.38	2.3416682211538
19	12189	7.39	2.3416682710126
19	12190	7.4	2.3416683230112
19	12229	7.41	2.3416683770988
19	12264	7.42	2.3416684332232
19	12299	7.43	2.3416684913338
19	12300	7.44	2.3416685513796
19	12301	7.45	2.3416686133115
19	12336	7.46	2.3416686770799
19	12337	7.47	2.3416687426369
19	12338	7.48	2.3416688099346
19	12339	7.49	2.3416688789249
19	12340	7.5	2.3416689495612
19	12379	7.51	2.3416690217984
19	12414	7.52	2.3416690955899
[...]
2	64744	55.23	931.55726268403
2	64745	55.24	931.69615168374
2	64746	55.25	931.83504068346
2	64765	55.26	931.97392968317
2	64766	55.27	932.11281868289
2	64767	55.28	932.2517076826
2	64768	55.29	932.39059668231
2	64769	55.3	932.52948568203
2	64772	55.31	932.66837468175
2	64773	55.32	932.80726368146
2	64792	55.33	932.94615268118
2	64793	55.34	933.0850416809
2	64794	55.35	933.22393068061
2	64813	55.36	933.36281968033
2	64814	55.37	933.50170868005
2	64815	55.38	933.64059767977
2	64816	55.39	933.77948667949
2	64817	55.4	933.91837567921
2	64820	55.41	934.05726467893
2	64821	55.42	934.19615367865
2	64840	55.43	934.33504267837
2	64841	55.44	934.47393167809
2	64842	55.45	934.61282067782
2	64861	55.46	934.75170967754
2	64862	55.47	934.89059867726
2	64863	55.48	935.02948767698
2	64864	55.49	935.16837667671
2	64865	55.5	935.30726567643
2	64868	55.51	935.44615467616
2	64869	55.52	935.58504367588
2	64888	55.53	935.72393267561
2	64889	55.54	935.86282167533
2	64890	55.55	936.00171067506
2	64909	55.56	936.14059967479
2	64910	55.57	936.27948867451
2	64911	55.58	936.41837767424
2	64912	55.59	936.55726667397
2	64913	55.6	936.6961556737
2	64916	55.61	936.83504467343
2	64917	55.62	936.97393367316
2	64936	55.63	937.11282267289
2	64937	55.64	937.25171167262
2	64938	55.65	937.39060067235
2	64957	55.66	937.52948967208
2	64958	55.67	937.66837867181
2	64959	55.68	937.80726767154
2	64960	55.69	937.94615667127
2	64961	55.7	938.08504567101
2	64964	55.71	938.22393467074
2	64965	55.72	938.36282367047
2	64984	55.73	938.50171267021
2	64985	55.74	938.64060166994
2	64986	55.75	938.77949066968
2	65005	55.76	938.91837966941
2	65006	55.77	939.05726866915
2	65007	55.78	939.19615766888
2	65008	55.79	939.33504666862
2	65009	55.8	939.47393566836
2	65012	55.81	939.61282466809
2	65013	55.82	939.75171366783
2	65032	55.83	939.89060266757
2	65033	55.84	940.02949166731
2	65034	55.85	940.16838066705
2	65053	55.86	940.30726966679
2	65054	55.87	940.44615866653
2	65055	55.88	940.58504766627
2	65056	55.89	940.72393666601
2	65057	55.9	940.86282566575
2	65060	55.91	941.00171466549
2	65061	55.92	941.14060366523
2	65080	55.93	941.27949266497
2	65081	55.94	941.41838166472
2	65082	55.95	941.55727066446
2	65101	55.96	941.6961596642
2	65102	55.97	941.83504866395
2	65103	55.98	941.97393766369
2	65104	55.99	942.11282666343
2	65107	56	942.25171566318
2	65110	56.01	942.39060466292
2	65111	56.02	942.52949366267
2	65130	56.03	942.66838266242
2	65131	56.04	942.80727166216
2	65132	56.05	942.94616066191
2	65151	56.06	943.08504966166
2	65152	56.07	943.2239386614
2	65153	56.08	943.36282766115
2	65154	56.09	943.5017166609
2	65155	56.1	943.64060566065
2	65158	56.11	943.7794946604
2	65159	56.12	943.91838366015
2	65178	56.13	944.0572726599
2	65179	56.14	944.19616165965
2	65180	56.15	944.3350506594
2	65199	56.16	944.47393965915
2	65200	56.17	944.6128286589
2	65201	56.18	944.75171765866
2	65202	56.19	944.89060665841
2	65203	56.2	945.02949565816
2	65206	56.21	945.16838465791
2	65207	56.22	945.30727365767
2	65226	56.23	945.44616265742
2	65227	56.24	945.58505165718
2	65228	56.25	945.72394065693
2	65247	56.26	945.86282965669
2	65248	56.27	946.00171865644
2	65249	56.28	946.1406076562
2	65250	56.29	946.27949665595
2	65251	56.3	946.41838565571
2	65254	56.31	946.55727465547
2	65255	56.32	946.69616365522
2	65274	56.33	946.83505265498
2	65275	56.34	946.97394165474
2	65276	56.35	947.1128306545
2	65295	56.36	947.25171965426
2	65296	56.37	947.39060865402
2	65297	56.38	947.52949765378
2	65298	56.39	947.66838665354
2	65299	56.4	947.8072756533
2	65302	56.41	947.94616465306
2	65303	56.42	948.08505365282
2	65322	56.43	948.22394265258
2	65323	56.44	948.36283165234
2	65324	56.45	948.5017206521
2	65343	56.46	948.64060965187
2	65344	56.47	948.77949865163
2	65345	56.48	948.91838765139
2	65346	56.49	949.05727665116
2	65347	56.5	949.19616565092
2	65350	56.51	949.33505465069
2	65351	56.52	949.47394365045
2	65370	56.53	949.61283265022
2	65371	56.54	949.75172164998
2	65372	56.55	949.89061064975
2	65391	56.56	950.02949964951
2	65392	56.57	950.16838864928
2	65393	56.58	950.30727764905
2	65394	56.59	950.44616664881
2	65395	56.6	950.58505564858
2	65398	56.61	950.72394464835
2	65399	56.62	950.86283364812
2	65418	56.63	951.00172264789
2	65419	56.64	951.14061164766
2	65420	56.65	951.27950064743
2	65439	56.66	951.4183896472
2	65440	56.67	951.55727864697
2	65441	56.68	951.69616764674
2	65442	56.69	951.83505664651
2	65443	56.7	951.97394564628
2	65446	56.71	952.11283464605
2	65447	56.72	952.25172364582
2	65466	56.73	952.3906126456
2	65467	56.74	952.52950164537
2	65468	56.75	952.66839064514
2	65487	56.76	952.80727964491
2	65488	56.77	952.94616864469
2	65489	56.78	953.08505764446
2	65490	56.79	953.22394664424
2	65491	56.8	953.36283564401
2	65494	56.81	953.50172464379
2	65495	56.82	953.64061364356
2	65514	56.83	953.77950264334
2	65515	56.84	953.91839164312
2	65516	56.85	954.05728064289
2	65535	56.86	954.19616964267
2	65536	56.87	954.33505864245
2	65537	56.88	954.47394764222
2	65538	56.89	954.612836642
2	65539	56.9	954.75172564178
2	65542	56.91	954.89061464156
2	65543	56.92	955.02950364134
2	65562	56.93	955.16839264112
2	65563	56.94	955.3072816409
2	65564	56.95	955.44617064068
2	65583	56.96	955.58505964046
2	65584	56.97	955.72394864024
2	65585	56.98	955.86283764002
2	65586	56.99	956.0017266398
2	65589	57	956.14061563958
2	65592	57.01	956.27950463937
2	65593	57.02	956.41839363915
2	65612	57.03	956.55728263893
2	65613	57.04	956.69617163871
2	65614	57.05	956.8350606385
2	65633	57.06	956.97394963828
2	65634	57.07	957.11283863806
2	65635	57.08	957.25172763785
2	65636	57.09	957.39061663763
2	65637	57.1	957.52950563742
2	65640	57.11	957.66839463721
2	65641	57.12	957.80728363699
2	65660	57.13	957.94617263678
2	65661	57.14	958.08506163656
2	65662	57.15	958.22395063635
2	65681	57.16	958.36283963614
2	65682	57.17	958.50172863593
2	65683	57.18	958.64061763571
2	65684	57.19	958.7795066355
2	65685	57.2	958.91839563529
2	65688	57.21	959.05728463508
2	65689	57.22	959.19617363487
2	65708	57.23	959.33506263466
2	65709	57.24	959.47395163445
2	65710	57.25	959.61284063424
2	65729	57.26	959.75172963403
2	65730	57.27	959.89061863382
2	65731	57.28	960.02950763361
2	65732	57.29	960.1683966334
2	65733	57.3	960.30728563319
2	65736	57.31	960.44617463299
2	65737	57.32	960.58506363278
2	65756	57.33	960.72395263257
2	65757	57.34	960.86284163236
2	65758	57.35	961.00173063216
2	65777	57.36	961.14061963195
2	65778	57.37	961.27950863174
2	65779	57.38	961.41839763154
2	65780	57.39	961.55728663133
2	65781	57.4	961.69617563113
2	65784	57.41	961.83506463092
2	65785	57.42	961.97395363072
2	65804	57.43	962.11284263052
2	65805	57.44	962.25173163031
2	65806	57.45	962.39062063011
2	65825	57.46	962.52950962991
2	65826	57.47	962.6683986297
2	65827	57.48	962.8072876295
2	65828	57.49	962.9461766293
2	65829	57.5	963.0850656291
2	65832	57.51	963.22395462889
2	65833	57.52	963.36284362869
2	65852	57.53	963.50173262849
2	65853	57.54	963.64062162829
2	65854	57.55	963.77951062809
2	65873	57.56	963.91839962789
2	65874	57.57	964.05728862769
2	65875	57.58	964.19617762749
2	65876	57.59	964.33506662729
2	65877	57.6	964.4739556271
2	65880	57.61	964.6128446269
2	65881	57.62	964.7517336267
2	65900	57.63	964.8906226265
2	65901	57.64	965.0295116263
2	65902	57.65	965.16840062611
2	65921	57.66	965.30728962591
2	65922	57.67	965.44617862571
2	65923	57.68	965.58506762552
2	65924	57.69	965.72395662532
2	65925	57.7	965.86284562513
2	65928	57.71	966.00173462493
2	65929	57.72	966.14062362474
2	65948	57.73	966.27951262454
2	65949	57.74	966.41840162435
2	65950	57.75	966.55729062415
2	65969	57.76	966.69617962396
2	65970	57.77	966.83506862377
2	65971	57.78	966.97395762357
2	65972	57.79	967.11284662338
2	65973	57.8	967.25173562319
2	65976	57.81	967.39062462299
2	65977	57.82	967.5295136228
2	65996	57.83	967.66840262261
2	65997	57.84	967.80729162242
2	65998	57.85	967.94618062223
2	66017	57.86	968.08506962204
2	66018	57.87	968.22395862185
2	66019	57.88	968.36284762166
2	66020	57.89	968.50173662147
2	66021	57.9	968.64062562128
2	66024	57.91	968.77951462109
2	66025	57.92	968.9184036209
2	66044	57.93	969.05729262071
2	66045	57.94	969.19618162052
2	66046	57.95	969.33507062033
2	66065	57.96	969.47395962015
2	66066	57.97	969.61284861996
2	66067	57.98	969.75173761977
2	66068	57.99	969.89062661958
2	66071	58	970.0295156194
2	66074	58.01	970.16840461921
2	66075	58.02	970.30729361903
2	66094	58.03	970.44618261884
2	66095	58.04	970.58507161865
2	66096	58.05	970.72396061847
2	66115	58.06	970.86284961828
2	66116	58.07	971.0017386181
2	66117	58.08	971.14062761791
2	66118	58.09	971.27951661773
2	66119	58.1	971.41840561755
2	66122	58.11	971.55729461736
2	66123	58.12	971.69618361718
2	66142	58.13	971.835072617
2	66143	58.14	971.97396161681
2	66144	58.15	972.11285061663
2	66163	58.16	972.25173961645
2	66164	58.17	972.39062861627
2	66165	58.18	972.52951761609
2	66166	58.19	972.66840661591
2	66167	58.2	972.80729561573
2	66170	58.21	972.94618461554
2	66171	58.22	973.08507361536
2	66190	58.23	973.22396261518
2	66191	58.24	973.362851615
2	66192	58.25	973.50174061482
2	66211	58.26	973.64062961465
2	66212	58.27	973.77951861447
2	66213	58.28	973.91840761429
2	66214	58.29	974.05729661411
2	66215	58.3	974.19618561393
2	66218	58.31	974.33507461375
2	66219	58.32	974.47396361358
2	66238	58.33	974.6128526134
2	66239	58.34	974.75174161322
2	66240	58.35	974.89063061304
2	66259	58.36	975.02951961287
2	66260	58.37	975.16840861269
2	66261	58.38	975.30729761252
2	66262	58.39	975.44618661234
2	66263	58.4	975.58507561217
2	66266	58.41	975.72396461199
2	66267	58.42	975.86285361182
2	66286	58.43	976.00174261164
2	66287	58.44	976.14063161147
2	66288	58.45	976.27952061129
2	66307	58.46	976.41840961112
2	66308	58.47	976.55729861095
2	66309	58.48	976.69618761077
2	66310	58.49	976.8350766106
2	66311	58.5	976.97396561043
2	66314	58.51	977.11285461025
2	66315	58.52	977.25174361008
2	66334	58.53	977.39063260991
2	66335	58.54	977.52952160974
2	66336	58.55	977.66841060957
2	66355	58.56	977.8072996094
2	66356	58.57	977.94618860923
2	66357	58.58	978.08507760906
2	66358	58.59	978.22396660889
2	66359	58.6	978.36285560872
2	66362	58.61	978.50174460855
2	66363	58.62	978.64063360838
2	66382	58.63	978.77952260821
2	66383	58.64	978.91841160804
2	66384	58.65	979.05730060787
2	66403	58.66	979.1961896077
2	66404	58.67	979.33507860753
2	66405	58.68	979.47396760736
2	66406	58.69	979.6128566072
2	66407	58.7	979.75174560703
2	66410	58.71	979.89063460686
2	66411	58.72	980.0295236067
2	66430	58.73	980.16841260653
2	66431	58.74	980.30730160636
2	66432	58.75	980.4461906062
2	66451	58.76	980.58507960603
2	66452	58.77	980.72396860587
2	66453	58.78	980.8628576057
2	66454	58.79	981.00174660554
2	66455	58.8	981.14063560537
2	66458	58.81	981.27952460521
2	66459	58.82	981.41841360504
2	66478	58.83	981.55730260488
2	66479	58.84	981.69619160471
2	66480	58.85	981.83508060455
2	66499	58.86	981.97396960439
2	66500	58.87	982.11285860422
2	66501	58.88	982.25174760406
2	66502	58.89	982.3906366039
2	66503	58.9	982.52952560374
2	66506	58.91	982.66841460358
2	66507	58.92	982.80730360341
2	66526	58.93	982.94619260325
2	66527	58.94	983.08508160309
2	66528	58.95	983.22397060293
2	66547	58.96	983.36285960277
2	66548	58.97	983.50174860261
2	66549	58.98	983.64063760245
2	66550	58.99	983.77952660229
2	66553	59	983.91841560213
2	66556	59.01	984.05730460197
2	66557	59.02	984.19619360181
2	66576	59.03	984.33508260165
2	66577	59.04	984.47397160149
2	66578	59.05	984.61286060133
2	66597	59.06	984.75174960118
2	66598	59.07	984.89063860102
2	66599	59.08	985.02952760086
2	66600	59.09	985.1684166007
2	66601	59.1	985.30730560055
2	66604	59.11	985.44619460039
2	66605	59.12	985.58508360023
2	66624	59.13	985.72397260008
2	66625	59.14	985.86286159992
2	66626	59.15	986.00175059976
2	66645	59.16	986.14063959961
2	66646	59.17	986.27952859945
2	66647	59.18	986.4184175993
2	66648	59.19	986.55730659914
2	66649	59.2	986.69619559899
2	66652	59.21	986.83508459883
2	66653	59.22	986.97397359868
2	66672	59.23	987.11286259852
2	66673	59.24	987.25175159837
2	66674	59.25	987.39064059822
2	66693	59.26	987.52952959806
2	66694	59.27	987.66841859791
2	66695	59.28	987.80730759776
2	66696	59.29	987.94619659761
2	66697	59.3	988.08508559745
2	66700	59.31	988.2239745973
2	66701	59.32	988.36286359715
2	66720	59.33	988.501752597
2	66721	59.34	988.64064159685
2	66722	59.35	988.77953059669
2	66741	59.36	988.91841959654
2	66742	59.37	989.05730859639
2	66743	59.38	989.19619759624
2	66744	59.39	989.33508659609
2	66745	59.4	989.47397559594
2	66748	59.41	989.61286459579
2	66749	59.42	989.75175359564
2	66768	59.43	989.89064259549
2	66769	59.44	990.02953159534
2	66770	59.45	990.1684205952
2	66789	59.46	990.30730959505
2	66790	59.47	990.4461985949
2	66791	59.48	990.58508759475
2	66792	59.49	990.7239765946
2	66793	59.5	990.86286559446
2	66796	59.51	991.00175459431
2	66797	59.52	991.14064359416
2	66816	59.53	991.27953259401
2	66817	59.54	991.41842159387
2	66818	59.55	991.55731059372
2	66837	59.56	991.69619959357
2	66838	59.57	991.83508859343
2	66839	59.58	991.97397759328
2	66840	59.59	992.11286659314
2	66841	59.6	992.25175559299
2	66844	59.61	992.39064459285
2	66845	59.62	992.5295335927
2	66864	59.63	992.66842259256
2	66865	59.64	992.80731159241
2	66866	59.65	992.94620059227
2	66885	59.66	993.08508959212
2	66886	59.67	993.22397859198
2	66887	59.68	993.36286759183
2	66888	59.69	993.50175659169
2	66889	59.7	993.64064559155
2	66892	59.71	993.77953459141
2	66893	59.72	993.91842359126
2	66912	59.73	994.05731259112
2	66913	59.74	994.19620159098
2	66914	59.75	994.33509059084
2	66933	59.76	994.47397959069
2	66934	59.77	994.61286859055
2	66935	59.78	994.75175759041
2	66936	59.79	994.89064659027
2	66937	59.8	995.02953559013
2	66940	59.81	995.16842458999
2	66941	59.82	995.30731358985
2	66960	59.83	995.44620258971
2	66961	59.84	995.58509158957
2	66962	59.85	995.72398058943
2	66981	59.86	995.86286958929
2	66982	59.87	996.00175858915
2	66983	59.88	996.14064758901
2	66984	59.89	996.27953658887
2	66985	59.9	996.41842558873
2	66988	59.91	996.55731458859
2	66989	59.92	996.69620358845
2	67008	59.93	996.83509258832
2	67009	59.94	996.97398158818
2	67010	59.95	997.11287058804
2	67029	59.96	997.2517595879
2	67030	59.97	997.39064858777
2	67031	59.98	997.52953758763
2	67032	59.99	997.66842658749
2	67035	60	997.80731558736
2	67038	60.01	997.94620458722
2	67039	60.02	998.08509358708
2	67058	60.03	998.22398258695
2	67059	60.04	998.36287158681
2	67060	60.05	998.50176058668
2	67079	60.06	998.64064958654
2	67080	60.07	998.77953858641
2	67081	60.08	998.91842758627
2	67082	60.09	999.05731658614
2	67083	60.1	999.196205586
2	67086	60.11	999.33509458587
2	67087	60.12	999.47398358573
2	67106	60.13	999.6128725856
2	67107	60.14	999.75176158547
2	67108	60.15	999.89065058533
2	67127	60.16	1000.0295395852
2	67128	60.17	1000.1684285851
2	67129	60.18	1000.3073175849
2	67130	60.19	1000.4462065848
2	67131	60.2	1000.5850955847
2	67134	60.21	1000.7239845845
2	67135	60.22	1000.8628735844
2	67154	60.23	1001.0017625843
2	67155	60.24	1001.1406515841
2	67156	60.25	1001.279540584
2	67175	60.26	1001.4184295839
2	67176	60.27	1001.5573185837
2	67177	60.28	1001.6962075836
2	67178	60.29	1001.8350965835
2	67179	60.3	1001.9739855834
2	67182	60.31	1002.1128745832
2	67183	60.32	1002.2517635831
2	67202	60.33	1002.390652583
2	67203	60.34	1002.5295415828
2	67204	60.35	1002.6684305827
2	67223	60.36	1002.8073195826
2	67224	60.37	1002.9462085824
2	67225	60.38	1003.0850975823
2	67226	60.39	1003.2239865822
2	67227	60.4	1003.3628755821
2	67230	60.41	1003.5017645819
2	67231	60.42	1003.6406535818
2	67250	60.43	1003.7795425817
2	67251	60.44	1003.9184315816
2	67252	60.45	1004.0573205814
2	67271	60.46	1004.1962095813
2	67272	60.47	1004.3350985812
2	67273	60.48	1004.473987581
2	67274	60.49	1004.6128765809
2	67275	60.5	1004.7517655808
2	67278	60.51	1004.8906545807
2	67279	60.52	1005.0295435805
2	67298	60.53	1005.1684325804
2	67299	60.54	1005.3073215803
2	67300	60.55	1005.4462105802
2	67319	60.56	1005.58509958
2	67320	60.57	1005.7239885799
2	67321	60.58	1005.8628775798
2	67322	60.59	1006.0017665797
2	67323	60.6	1006.1406555795
2	67326	60.61	1006.2795445794
2	67327	60.62	1006.4184335793
2	67346	60.63	1006.5573225792
2	67347	60.64	1006.696211579
2	67348	60.65	1006.8351005789
2	67367	60.66	1006.9739895788
2	67368	60.67	1007.1128785787
2	67369	60.68	1007.2517675786
2	67370	60.69	1007.3906565784
2	67371	60.7	1007.5295455783
2	67374	60.71	1007.6684345782
2	67375	60.72	1007.8073235781
2	67394	60.73	1007.9462125779
2	67395	60.74	1008.0851015778
2	67396	60.75	1008.2239905777
2	67415	60.76	1008.3628795776
2	67416	60.77	1008.5017685775
2	67417	60.78	1008.6406575773
2	67418	60.79	1008.7795465772
2	67419	60.8	1008.9184355771
2	67422	60.81	1009.057324577
2	67423	60.82	1009.1962135769
2	67442	60.83	1009.3351025767
2	67443	60.84	1009.4739915766
2	67444	60.85	1009.6128805765
2	67463	60.86	1009.7517695764
2	67464	60.87	1009.8906585763
2	67465	60.88	1010.0295475761
2	67466	60.89	1010.168436576
2	67467	60.9	1010.3073255759
2	67470	60.91	1010.4462145758
2	67471	60.92	1010.5851035757
2	67490	60.93	1010.7239925755
2	67491	60.94	1010.8628815754
2	67492	60.95	1011.0017705753
2	67511	60.96	1011.1406595752
2	67512	60.97	1011.2795485751
2	67513	60.98	1011.418437575
2	67514	60.99	1011.5573265748
2	67517	61	1011.6962155747
2	67520	61.01	1011.8351045746
2	67521	61.02	1011.9739935745
2	67540	61.03	1012.1128825744
2	67541	61.04	1012.2517715743
2	67542	61.05	1012.3906605741
2	67561	61.06	1012.529549574
2	67562	61.07	1012.6684385739
2	67563	61.08	1012.8073275738
2	67564	61.09	1012.9462165737
2	67565	61.1	1013.0851055736
2	67568	61.11	1013.2239945734
2	67569	61.12	1013.3628835733
2	67588	61.13	1013.5017725732
2	67589	61.14	1013.6406615731
2	67590	61.15	1013.779550573
2	67609	61.16	1013.9184395729
2	67610	61.17	1014.0573285728
2	67611	61.18	1014.1962175726
2	67612	61.19	1014.3351065725
2	67613	61.2	1014.4739955724
2	67616	61.21	1014.6128845723
2	67617	61.22	1014.7517735722
2	67636	61.23	1014.8906625721
2	67637	61.24	1015.029551572
2	67638	61.25	1015.1684405719
2	67657	61.26	1015.3073295717
2	67658	61.27	1015.4462185716
2	67659	61.28	1015.5851075715
2	67660	61.29	1015.7239965714
2	67661	61.3	1015.8628855713
2	67664	61.31	1016.0017745712
2	67665	61.32	1016.1406660221
2	67676	61.33	1016.2795647778
2	67677	61.34	1016.4184755972
2	67678	61.35	1016.5574031456
2	67679	61.36	1016.6963519969
2	67680	61.37	1016.8353266355
2	67681	61.38	1016.9743314577
2	67682	61.39	1017.1133707735
2	67683	61.4	1017.2524488086
2	67685	61.41	1017.3915697058
2	67686	61.42	1017.5307375265
2	67697	61.43	1017.6699562528
2	67698	61.44	1017.8092297883
2	67699	61.45	1017.9485619604
2	67700	61.46	1018.0879565212
2	67701	61.47	1018.2274171495
2	67702	61.48	1018.3669474518
2	67703	61.49	1018.5065509638
2	67704	61.5	1018.646231152
2	67706	61.51	1018.785991415
2	67707	61.52	1018.9258350845
2	67718	61.53	1019.0657654273
2	67719	61.54	1019.2057856456
2	67720	61.55	1019.3458988793
2	67721	61.56	1019.4861082064
2	67722	61.57	1019.6264166448
2	67723	61.58	1019.766827153
2	67724	61.59	1019.9073426316
2	67725	61.6	1020.0479659244
2	67727	61.61	1020.1886998192
2	67728	61.62	1020.3295470495
2	67739	61.63	1020.4705102949
2	67740	61.64	1020.6115921824
2	67741	61.65	1020.7527952879
2	67742	61.66	1020.8941221364
2	67743	61.67	1021.0355752036
2	67744	61.68	1021.1771569165
2	67745	61.69	1021.3188696547
2	67746	61.7	1021.4607157509
2	67748	61.71	1021.6026974923
2	67749	61.72	1021.7448171211
2	67760	61.73	1021.8870768356
2	67761	61.74	1022.029478791
2	67762	61.75	1022.1720251002
2	67763	61.76	1022.3147178347
2	67764	61.77	1022.4575590254
2	67765	61.78	1022.6005506634
2	67766	61.79	1022.7436947006
2	67767	61.8	1022.8869930508
2	67769	61.81	1023.0304475902
2	67770	61.82	1023.1740601582
2	67781	61.83	1023.3178325583
2	67782	61.84	1023.4617665583
2	67783	61.85	1023.6058638917
2	67784	61.86	1023.7501262577
2	67785	61.87	1023.8945553225
2	67786	61.88	1024.0391527193
2	67787	61.89	1024.1839200495
2	67788	61.9	1024.328858883
2	67790	61.91	1024.473970759
2	67791	61.92	1024.6192571865
2	67802	61.93	1024.7647196448

