version 3
run OvertakeNoGui-233-20241104-10:03:38-91476
attr configname OvertakeNoGui
attr datetime 20241104-10:03:38
attr datetimef 20241104-100338
attr experiment OvertakeNoGui
attr inifile omnetpp.ini
attr iterationvars "$leaderHeadway=1.2, $leaderSpeed=50, $controller=0, $pCSpeed=56, $pDeltaC=474"
attr iterationvarsd leaderHeadway=1.2/leaderSpeed=50/controller=0/pCSpeed=56/pDeltaC=474
attr iterationvarsf leaderHeadway=1.2,leaderSpeed=50,controller=0,pCSpeed=56,pDeltaC=474-
attr measurement "$leaderHeadway=1.2, $leaderSpeed=50, $controller=0, $pCSpeed=56, $pDeltaC=474"
attr network Overtake
attr processid 91476
attr repetition 0
attr replication #0
attr resultdir results
attr runnumber 233
attr seedset 0
itervar controller 0
itervar leaderHeadway 1.2
itervar leaderSpeed 50
itervar pCSpeed 56
itervar pDeltaC 474
config image-path ../../../../veins/images;../../images
config *.manager.command "\"sumo\""
config *.manager.ignoreGuiCommands true
config *.node[*].scenario_type "\"OvertakeScenario\""
config output-vector-file results/OvertakeNoGui_56_474_0.vec
config output-scalar-file results/OvertakeNoGui_56_474_0.sca
config cmdenv-express-mode false
config cmdenv-autoflush true
config cmdenv-status-frequency 10s
config num-rngs 6
config cmdenv-output-file log.txt
config cmdenv-redirect-output true
config network Overtake
config debug-on-errors true
config print-undisposed true
config *.playgroundSizeX 65000m
config *.playgroundSizeY 25000m
config *.playgroundSizeZ 50m
config sim-time-limit "360 s"
config *.annotations.draw false
config *.obstacles.debug false
config *.world.useTorus false
config *.world.use2D false
config *.manager.updateInterval 0.01s
config *.manager.host "\"localhost\""
config *.manager.moduleType "\"vtypeauto=org.car2x.plexe.PlatoonCar vtypehuman=0\""
config *.manager.moduleName "\"vtypeauto=node vtypehuman=0\""
config *.manager.moduleDisplayString "\"\""
config *.manager.autoShutdown true
config *.manager.margin 25
config *.manager.order -1
config *.connectionManager.sendDirect true
config *.connectionManager.maxInterfDist 2600m
config *.connectionManager.drawMaxIntfDist false
config *.**.nic.mac1609_4.useServiceChannel false
config *.**.nic.mac1609_4.txPower 100mW
config *.**.nic.mac1609_4.bitrate 6Mbps
config *.**.nic.mac1609_4.useAcks true
config *.**.nic.mac1609_4.ackErrorRate 0.0
config *.**.nic.mac1609_4.frameErrorRate 0.0
config *.**.nic.phy80211p.minPowerLevel -94dBm
config *.**.nic.phy80211p.maxTXPower 100mW
config *.**.nic.phy80211p.useNoiseFloor true
config *.**.nic.phy80211p.noiseFloor -95dBm
config *.**.nic.phy80211p.decider "xmldoc(\"config.xml\")"
config *.**.nic.phy80211p.analogueModels "xmldoc(\"config.xml\")"
config *.**.nic.phy80211p.usePropagationDelay true
config *.node[*].mobility.x 0
config *.node[*].mobility.y 0
config *.node[*].mobility.z 1.895
config *.shockwave[*].mobility.x 0
config *.shockwave[*].mobility.y 0
config *.shockwave[*].mobility.z 1.895
config seed-set 0
config **.seed 0
config *.node[*].prot.rng-0 2
config *.node[*].appl.rng-0 3
config *.node[*].scenario.rng-0 4
config *.manager.configFile "\"./sumocfg/overtake.sumo.cfg\""
config *.manager.launchConfig "xmldoc(\"./sumocfg/overtake.launchd.xml\")"
config *.node[*].helper_type "\"PositionHelper\""
config *.node[*].scenario.caccC1 0.5
config *.node[*].scenario.caccXi 1
config *.node[*].scenario.caccOmegaN "0.2 Hz"
config *.node[*].scenario.caccSpacing "5 m"
config *.node[*].scenario.engineTau "0.5 s"
config *.node[*].scenario.ploegH "0.5 s"
config *.node[*].scenario.ploegKp 0.2
config *.node[*].scenario.ploegKd 0.7
config *.node[*].scenario.useRealisticEngine false
config *.node[*].scenario.targetController "\"CACC\""
config *.node[*].scenario.accHeadway "0.1 s"
config *.node[*].scenario.leaderHeadway "1.2 s"
config *.node[*].scenario.leaderSpeed "50 kmph"
config *.node[*].appl_type "\"OvertakeApp\""
config *.node[*].appl.*.scalar-recording true
config *.node[*].appl.*.vector-recording true
config *.node[*].appl.overtakeManeuver "\"OvertakeManeuver\""
config *.node[*].protocol_type "\"SimplePlatooningBeaconing\""
config *.node[*].prot.*.scalar-recording true
config *.node[*].prot.*.vector-recording true
config *.node[*].prot.beaconingInterval "0.1 s"
config *.node[*].prot.priority 4
config *.node[*].prot.packetSize 200
config *.node[*].prot.useControllerAcceleration true
config **.traffic_type "\"OvertakeTrafficManager\""
config **.traffic.platoonInsertTime "0.1 s"
config **.traffic.platooningVType "\"vtypeauto\""
config **.numericController 0
config **.traffic.platoonInsertDistance 5m
config **.traffic.platoonInsertHeadway 0s
config **.traffic.platoonLeaderHeadway 1.2s
config **.traffic.platoonASpeed 50kmph
config **.traffic.platoonBSpeed 100kmph
config **.traffic.platoonCSpeed 56kmph
config **.traffic.platoonSizeA 2
config **.traffic.platoonSizeB 1
config **.traffic.platoonSizeC 1
config **.traffic.initialPositionDeltaA 150
config **.traffic.initialPositionDeltaB 50
config **.traffic.initialPositionDeltaC 474
config **.traffic.controller "\"CACC\""
config **.scalar-recording true
config **.vector-recording true

vector 0 Overtake.node[0].mobility posx ETV
vector 1 Overtake.node[0].mobility posy ETV
vector 2 Overtake.node[1].mobility posx ETV
vector 3 Overtake.node[1].mobility posy ETV
vector 4 Overtake.node[2].mobility posx ETV
vector 5 Overtake.node[2].mobility posy ETV
vector 6 Overtake.node[3].mobility posx ETV
vector 7 Overtake.node[3].mobility posy ETV
vector 8 Overtake.node[0].mobility speed ETV
vector 9 Overtake.node[1].mobility speed ETV
vector 10 Overtake.node[2].mobility speed ETV
vector 11 Overtake.node[3].mobility speed ETV
vector 12 Overtake.node[0].mobility acceleration ETV
vector 13 Overtake.node[0].mobility co2emission ETV
vector 14 Overtake.node[1].mobility acceleration ETV
vector 15 Overtake.node[1].mobility co2emission ETV
vector 16 Overtake.node[2].mobility acceleration ETV
vector 17 Overtake.node[2].mobility co2emission ETV
vector 18 Overtake.node[3].mobility acceleration ETV
vector 19 Overtake.node[3].mobility co2emission ETV
vector 20 Overtake.node[0].appl distance ETV
vector 21 Overtake.node[0].appl relativeSpeed ETV
vector 22 Overtake.node[0].appl nodeId ETV
vector 23 Overtake.node[0].appl acceleration ETV
vector 24 Overtake.node[0].appl controllerAcceleration ETV
vector 25 Overtake.node[0].appl speed ETV
vector 26 Overtake.node[0].appl posx ETV
vector 27 Overtake.node[0].appl posy ETV
vector 28 Overtake.node[1].appl distance ETV
vector 29 Overtake.node[1].appl relativeSpeed ETV
vector 30 Overtake.node[1].appl nodeId ETV
vector 31 Overtake.node[1].appl acceleration ETV
vector 32 Overtake.node[1].appl controllerAcceleration ETV
vector 33 Overtake.node[1].appl speed ETV
vector 34 Overtake.node[1].appl posx ETV
vector 35 Overtake.node[1].appl posy ETV
vector 36 Overtake.node[2].appl distance ETV
vector 37 Overtake.node[2].appl relativeSpeed ETV
vector 38 Overtake.node[2].appl nodeId ETV
vector 39 Overtake.node[2].appl acceleration ETV
vector 40 Overtake.node[2].appl controllerAcceleration ETV
vector 41 Overtake.node[2].appl speed ETV
vector 42 Overtake.node[2].appl posx ETV
vector 43 Overtake.node[2].appl posy ETV
vector 44 Overtake.node[3].appl distance ETV
vector 45 Overtake.node[3].appl relativeSpeed ETV
vector 46 Overtake.node[3].appl nodeId ETV
vector 47 Overtake.node[3].appl acceleration ETV
vector 48 Overtake.node[3].appl controllerAcceleration ETV
vector 49 Overtake.node[3].appl speed ETV
vector 50 Overtake.node[3].appl posx ETV
vector 51 Overtake.node[3].appl posy ETV
vector 52 Overtake.node[1].prot leaderDelay ETV
vector 53 Overtake.node[1].prot leaderDelayId ETV
vector 54 Overtake.node[1].prot frontDelay ETV
vector 55 Overtake.node[1].prot frontDelayId ETV
vector 56 Overtake.node[0].prot nodeId ETV
vector 57 Overtake.node[0].prot busyTime ETV
vector 58 Overtake.node[0].prot collisions ETV
vector 59 Overtake.node[1].prot nodeId ETV
vector 60 Overtake.node[1].prot busyTime ETV
vector 61 Overtake.node[1].prot collisions ETV
vector 62 Overtake.node[2].prot nodeId ETV
vector 63 Overtake.node[2].prot busyTime ETV
vector 64 Overtake.node[2].prot collisions ETV
vector 65 Overtake.node[3].prot nodeId ETV
vector 66 Overtake.node[3].prot busyTime ETV
vector 67 Overtake.node[3].prot collisions ETV
48	26	0.21	-0.00437036
48	176	0.31	-0.00426837
48	326	0.41	-0.00410815
48	476	0.51	-0.00390303
48	626	0.61	-0.00366476
48	776	0.71	-0.00340356
48	926	0.81	-0.00312825
48	1076	0.91	-0.00284628
48	1230	1.01	-0.00256392
48	1381	1.11	-0.0022863
48	1532	1.21	-0.00201755
48	1683	1.31	-0.00176089
48	2046	1.41	-0.00151876
48	2196	1.51	-0.00129289
48	2346	1.61	-0.00108441
48	2496	1.71	-0.00089393
48	2646	1.81	-0.000721638
48	2796	1.91	-0.000567355
48	2950	2.01	-0.000430614
48	3100	2.11	-0.000310715
48	3250	2.21	-0.000206783
48	3400	2.31	-0.000117814
48	3550	2.41	-4.27149e-05
48	3700	2.51	1.96584e-05
48	3850	2.61	7.04736e-05
48	4000	2.71	0.000110896
48	4150	2.81	0.000142067
48	4300	2.91	0.00016509
48	4454	3.01	0.000181016
48	4604	3.11	0.000190834
48	4754	3.21	0.000195466
48	4904	3.31	0.00019576
48	5054	3.41	0.000192489
48	5204	3.51	0.000186354
48	5354	3.61	0.000177979
48	5504	3.71	0.000167916
48	5654	3.81	0.000156649
48	5804	3.91	0.000144597
48	5958	4.01	0.000132116
48	6108	4.11	0.000119508
48	6258	4.21	0.000107021
48	6408	4.31	9.48587e-05
48	6558	4.41	8.31796e-05
48	6708	4.51	7.21068e-05
48	6858	4.61	6.17299e-05
48	7008	4.71	5.21101e-05
48	7158	4.81	4.32839e-05
48	7308	4.91	3.52669e-05
48	7462	5.01	2.80577e-05
48	7612	5.11	2.16404e-05
48	7762	5.21	1.59878e-05
48	7912	5.31	1.1064e-05
48	8062	5.41	6.82631e-06
48	8212	5.51	3.22748e-06
48	8362	5.61	2.17308e-07
48	8512	5.71	-2.25598e-06
48	8662	5.81	-4.24448e-06
48	8812	5.91	-5.79961e-06
48	8966	6.01	-6.97134e-06
48	9116	6.11	-7.80753e-06
48	9266	6.21	-8.35346e-06
48	9416	6.31	-8.65149e-06
48	9566	6.41	-8.7408e-06
48	9716	6.51	-8.6573e-06
48	9866	6.61	-8.43352e-06
48	10016	6.71	-8.09868e-06
48	10166	6.81	-7.67874e-06
48	10316	6.91	-7.19651e-06
48	10470	7.01	-6.67185e-06
48	10620	7.11	-6.12177e-06
48	10770	7.21	-5.56072e-06
48	10920	7.31	-5.00073e-06
48	11070	7.41	-4.45164e-06
48	11220	7.51	-3.92136e-06
48	11370	7.61	-3.41601e-06
48	11520	7.71	-2.94018e-06
48	11670	7.81	-2.4971e-06
48	11820	7.91	-2.08883e-06
48	11974	8.01	-1.71644e-06
48	12124	8.11	-1.38016e-06
48	12274	8.21	-1.07955e-06
48	12424	8.31	-8.13576e-07
48	12574	8.41	-5.80794e-07
48	12724	8.51	-3.79414e-07
48	12874	8.61	-2.07407e-07
48	13024	8.71	-6.25821e-08
48	13174	8.81	5.73475e-08
48	13324	8.91	1.54703e-07
48	13478	9.01	2.31794e-07
48	13628	9.11	2.90877e-07
48	13778	9.21	3.3413e-07
48	13928	9.31	3.63618e-07
48	14078	9.41	3.81288e-07
48	14228	9.51	3.88944e-07
48	14378	9.61	3.88249e-07
48	14528	9.71	3.80715e-07
48	14678	9.81	3.67706e-07
48	14828	9.91	3.50439e-07
48	14982	10.01	3.29989e-07
48	15132	10.11	3.07294e-07
48	15282	10.21	2.83164e-07
48	15432	10.31	2.58291e-07
48	15582	10.41	2.33254e-07
48	15732	10.51	2.0853e-07
48	15882	10.61	1.84509e-07
48	16032	10.71	1.61493e-07
48	16182	10.81	1.39716e-07
48	16332	10.91	1.19345e-07
48	16486	11.01	1.00494e-07
48	16636	11.11	8.32262e-08
48	16786	11.21	6.7568e-08
48	16936	11.31	5.35112e-08
48	17087	11.41	4.10198e-08
48	17237	11.51	3.00368e-08
48	17387	11.61	2.04881e-08
48	17537	11.71	1.22876e-08
48	17687	11.81	5.33973e-09
48	17837	11.91	-4.55636e-10
48	17991	12.01	-5.20171e-09
48	18141	12.11	-9.00169e-09
48	18291	12.21	-1.19577e-08
48	18441	12.31	-1.41682e-08
48	18591	12.41	-1.57275e-08
48	18741	12.51	-1.67244e-08
48	18891	12.61	-1.72424e-08
48	19041	12.71	-1.7358e-08
48	19191	12.81	-1.71415e-08
48	19341	12.91	-1.66565e-08
48	19495	13.01	-1.59599e-08
48	19645	13.11	-1.51022e-08
48	19795	13.21	-1.41277e-08
48	19945	13.31	-1.30749e-08
48	20095	13.41	-1.19766e-08
48	20245	13.51	-1.08608e-08
48	20395	13.61	-9.75078e-09
48	20545	13.71	-8.66525e-09
48	20695	13.81	-7.61933e-09
48	20845	13.91	-6.62457e-09
48	20999	14.01	-5.68967e-09
48	21149	14.11	-4.82068e-09
48	21299	14.21	-4.02149e-09
48	21449	14.31	-3.29354e-09
48	21599	14.41	-2.63736e-09
48	21749	14.51	-2.05187e-09
48	21899	14.61	-1.53459e-09
48	22049	14.71	-1.08287e-09
48	22199	14.81	-6.92779e-10
48	22349	14.91	-3.60245e-10
48	22503	15.01	-8.11795e-11
48	22653	15.11	1.49392e-10
48	22803	15.21	3.35731e-10
48	22953	15.31	4.82636e-10
48	23103	15.41	5.94369e-10
48	23253	15.51	6.75549e-10
48	23403	15.61	7.29905e-10
48	23553	15.71	7.61524e-10
48	23703	15.81	7.73781e-10
48	23853	15.91	7.69873e-10
48	24007	16.01	7.5282e-10
48	24157	16.11	7.25464e-10
48	24307	16.21	6.89937e-10
48	24457	16.31	6.4837e-10
48	24607	16.41	6.02718e-10
48	24757	16.51	5.54401e-10
48	24907	16.61	5.05018e-10
48	25057	16.71	4.5528e-10
48	25207	16.81	4.06253e-10
48	25357	16.91	3.58824e-10
48	25511	17.01	3.13527e-10
48	25661	17.11	2.70717e-10
48	25811	17.21	2.30749e-10
48	25961	17.31	1.93801e-10
48	26111	17.41	1.6005e-10
48	26261	17.51	1.29496e-10
48	26411	17.61	1.02141e-10
48	26561	17.71	7.78044e-11
48	26711	17.81	5.64881e-11
48	26861	17.91	3.8014e-11
48	27015	18.01	2.20268e-11
48	27165	18.11	8.70415e-12
48	27315	18.21	-2.4869e-12
48	27465	18.31	-1.1724e-11
48	27615	18.41	-1.88294e-11
48	27765	18.51	-2.45137e-11
48	27915	18.61	-2.8777e-11
48	28065	18.71	-3.16192e-11
48	28215	18.81	-3.33955e-11
48	28365	18.91	-3.42837e-11
48	28519	19.01	-3.44613e-11
48	28669	19.11	-3.39284e-11
48	28819	19.21	-3.28626e-11
48	28969	19.31	-3.14415e-11
48	29119	19.41	-2.98428e-11
48	29269	19.51	-2.78888e-11
48	29419	19.61	-2.57572e-11
48	29569	19.71	-2.34479e-11
48	29719	19.81	-2.13163e-11
48	29869	19.91	-1.91847e-11
48	30023	20.01	-1.7053e-11
48	30173	20.11	-1.49214e-11
48	30323	20.21	-1.3145e-11
48	30473	20.31	-1.13687e-11
48	30623	20.41	-9.76996e-12
48	30773	20.51	-8.52651e-12
48	30923	20.61	-7.28306e-12
48	31073	20.71	-6.03961e-12
48	31223	20.81	-5.15143e-12
48	31373	20.91	-4.26326e-12
48	31527	21.01	-3.37508e-12
48	31677	21.11	-2.66454e-12
48	31827	21.21	-1.95399e-12
48	31977	21.31	-1.24345e-12
48	32127	21.41	-7.10543e-13
48	32277	21.51	-3.55271e-13
48	32427	21.61	1.77636e-13
48	32577	21.71	5.32907e-13
48	32727	21.81	8.88178e-13
48	32877	21.91	1.24345e-12
48	33031	22.01	1.59872e-12
48	33181	22.11	1.77636e-12
48	33331	22.21	2.13163e-12
48	33481	22.31	2.30926e-12
48	33631	22.41	2.4869e-12
48	33781	22.51	2.66454e-12
48	33931	22.61	2.84217e-12
48	34081	22.71	3.01981e-12
48	34231	22.81	3.19744e-12
48	34381	22.91	3.37508e-12
48	34535	23.01	3.37508e-12
48	34685	23.11	3.55271e-12
48	34835	23.21	3.55271e-12
48	34985	23.31	3.73035e-12
48	35135	23.41	3.73035e-12
48	35285	23.51	3.73035e-12
48	35435	23.61	3.90799e-12
48	35585	23.71	3.90799e-12
48	35735	23.81	3.90799e-12
48	35885	23.91	4.08562e-12
48	36039	24.01	4.08562e-12
48	36189	24.11	4.08562e-12
48	36339	24.21	4.08562e-12
48	36489	24.31	4.08562e-12
48	36639	24.41	4.26326e-12
48	36789	24.51	4.26326e-12
48	36939	24.61	4.26326e-12
48	37089	24.71	4.26326e-12
48	37239	24.81	4.26326e-12
48	37389	24.91	4.26326e-12
48	37543	25.01	4.26326e-12
48	37693	25.11	4.26326e-12
48	37843	25.21	4.26326e-12
48	37993	25.31	4.26326e-12
48	38143	25.41	4.44089e-12
48	38293	25.51	4.44089e-12
48	38443	25.61	4.44089e-12
48	38593	25.71	4.44089e-12
48	38743	25.81	4.44089e-12
48	38893	25.91	4.44089e-12
48	39047	26.01	4.44089e-12
48	39197	26.11	4.44089e-12
48	39347	26.21	4.44089e-12
48	39497	26.31	4.44089e-12
48	39647	26.41	4.44089e-12
48	39797	26.51	4.44089e-12
48	39947	26.61	4.44089e-12
48	40097	26.71	4.44089e-12
48	40247	26.81	4.44089e-12
48	40397	26.91	4.44089e-12
48	40551	27.01	4.44089e-12
48	40701	27.11	4.44089e-12
48	40851	27.21	4.44089e-12
48	41001	27.31	4.44089e-12
48	41151	27.41	4.44089e-12
48	41301	27.51	4.44089e-12
48	41451	27.61	4.44089e-12
48	41601	27.71	4.44089e-12
48	41751	27.81	4.44089e-12
48	41901	27.91	4.44089e-12
48	42055	28.01	4.44089e-12
48	42205	28.11	4.44089e-12
48	42355	28.21	4.44089e-12
48	42505	28.31	4.44089e-12
48	42655	28.41	4.44089e-12
48	42805	28.51	4.44089e-12
48	42955	28.61	4.44089e-12
48	43105	28.71	4.44089e-12
48	43255	28.81	4.44089e-12
48	43405	28.91	4.44089e-12
48	43559	29.01	4.44089e-12
48	43709	29.11	4.44089e-12
48	43859	29.21	4.44089e-12
48	44009	29.31	4.44089e-12
48	44159	29.41	4.44089e-12
48	44309	29.51	4.44089e-12
48	44459	29.61	4.44089e-12
48	44609	29.71	4.44089e-12
48	44759	29.81	4.44089e-12
48	44909	29.91	4.44089e-12
48	45063	30.01	4.44089e-12
48	45213	30.11	4.44089e-12
48	45363	30.21	4.44089e-12
48	45513	30.31	4.44089e-12
48	45663	30.41	4.44089e-12
48	45813	30.51	4.44089e-12
48	45963	30.61	4.44089e-12
48	46113	30.71	4.44089e-12
48	46263	30.81	4.44089e-12
48	46413	30.91	4.44089e-12
48	46567	31.01	4.44089e-12
48	46717	31.11	4.44089e-12
48	46867	31.21	4.44089e-12
48	47017	31.31	4.44089e-12
48	47167	31.41	4.44089e-12
48	47317	31.51	4.44089e-12
48	47467	31.61	4.44089e-12
48	47617	31.71	4.44089e-12
48	47767	31.81	4.44089e-12
48	47917	31.91	4.44089e-12
48	48071	32.01	4.44089e-12
48	48221	32.11	4.44089e-12
48	48371	32.21	4.44089e-12
48	48521	32.31	4.44089e-12
48	48671	32.41	4.44089e-12
48	48821	32.51	4.44089e-12
48	48971	32.61	4.44089e-12
48	49121	32.71	4.44089e-12
48	49271	32.81	4.44089e-12
48	49421	32.91	4.44089e-12
48	49575	33.01	4.44089e-12
48	49725	33.11	4.44089e-12
48	49875	33.21	4.44089e-12
48	50025	33.31	4.44089e-12
48	50175	33.41	4.44089e-12
48	50325	33.51	4.44089e-12
48	50475	33.61	4.44089e-12
48	50625	33.71	4.44089e-12
48	50775	33.81	4.44089e-12
48	50925	33.91	4.44089e-12
47	26	0.21	-0.000716383
47	176	0.31	-0.00136341
47	326	0.41	-0.00186974
47	476	0.51	-0.00225157
47	626	0.61	-0.00252443
47	776	0.71	-0.00270298
47	926	0.81	-0.00280098
47	1076	0.91	-0.00283113
47	1230	1.01	-0.00280509
47	1381	1.11	-0.00273342
47	1532	1.21	-0.00262559
47	1683	1.31	-0.00249005
47	2046	1.41	-0.00233419
47	2196	1.51	-0.00216447
47	2346	1.61	-0.00198642
47	2496	1.71	-0.00180472
47	2646	1.81	-0.0016233
47	2796	1.91	-0.00144536
47	2950	2.01	-0.00127346
47	3100	2.11	-0.0011096
47	3250	2.21	-0.000955278
47	3400	2.31	-0.000811546
47	3550	2.41	-0.00067908
47	3700	2.51	-0.000558232
47	3850	2.61	-0.000449082
47	4000	2.71	-0.000351487
47	4150	2.81	-0.00026512
47	4300	2.91	-0.000189514
47	4454	3.01	-0.000124092
47	4604	3.11	-6.81972e-05
47	4754	3.21	-2.11209e-05
47	4904	3.31	1.78769e-05
47	5054	3.41	4.9548e-05
47	5204	3.51	7.46407e-05
47	5354	3.61	9.38867e-05
47	5504	3.71	0.000107991
47	5654	3.81	0.000117625
47	5804	3.91	0.000123418
47	5958	4.01	0.000125957
47	6108	4.11	0.000125781
47	6258	4.21	0.00012338
47	6408	4.31	0.000119198
47	6558	4.41	0.000113629
47	6708	4.51	0.000107022
47	6858	4.61	9.96832e-05
47	7008	4.71	9.18747e-05
47	7158	4.81	8.38211e-05
47	7308	4.91	7.57109e-05
47	7462	5.01	6.76999e-05
47	7612	5.11	5.99137e-05
47	7762	5.21	5.24518e-05
47	7912	5.31	4.53896e-05
47	8062	5.41	3.87821e-05
47	8212	5.51	3.2666e-05
47	8362	5.61	2.70628e-05
47	8512	5.71	2.19809e-05
47	8662	5.81	1.74176e-05
47	8812	5.91	1.33618e-05
47	8966	6.01	9.79494e-06
47	9116	6.11	6.6932e-06
47	9266	6.21	4.02864e-06
47	9416	6.31	1.77051e-06
47	9566	6.41	-1.13691e-07
47	9716	6.51	-1.65735e-06
47	9866	6.61	-2.89397e-06
47	10016	6.71	-3.85652e-06
47	10166	6.81	-4.57698e-06
47	10316	6.91	-5.08591e-06
47	10470	7.01	-5.41219e-06
47	10620	7.11	-5.58279e-06
47	10770	7.21	-5.6226e-06
47	10920	7.31	-5.55442e-06
47	11070	7.41	-5.39886e-06
47	11220	7.51	-5.17441e-06
47	11370	7.61	-4.89748e-06
47	11520	7.71	-4.58246e-06
47	11670	7.81	-4.24184e-06
47	11820	7.91	-3.88634e-06
47	11974	8.01	-3.52499e-06
47	12124	8.11	-3.16534e-06
47	12274	8.21	-2.81353e-06
47	12424	8.31	-2.47446e-06
47	12574	8.41	-2.15192e-06
47	12724	8.51	-1.84873e-06
47	12874	8.61	-1.56685e-06
47	13024	8.71	-1.30751e-06
47	13174	8.81	-1.0713e-06
47	13324	8.91	-8.58321e-07
47	13478	9.01	-6.68206e-07
47	13628	9.11	-5.0026e-07
47	13778	9.21	-3.53514e-07
47	13928	9.31	-2.2679e-07
47	14078	9.41	-1.18765e-07
47	14228	9.51	-2.80163e-08
47	14378	9.61	4.69315e-08
47	14528	9.71	1.07573e-07
47	14678	9.81	1.55391e-07
47	14828	9.91	1.91831e-07
47	14982	10.01	2.18284e-07
47	15132	10.11	2.3607e-07
47	15282	10.21	2.46426e-07
47	15432	10.31	2.50502e-07
47	15582	10.41	2.49352e-07
47	15732	10.51	2.43937e-07
47	15882	10.61	2.35119e-07
47	16032	10.71	2.23669e-07
47	16182	10.81	2.10264e-07
47	16332	10.91	1.95496e-07
47	16486	11.01	1.79874e-07
47	16636	11.11	1.63833e-07
47	16786	11.21	1.47736e-07
47	16936	11.31	1.3188e-07
47	17087	11.41	1.16507e-07
47	17237	11.51	1.01806e-07
47	17387	11.61	8.7921e-08
47	17537	11.71	7.49532e-08
47	17687	11.81	6.29706e-08
47	17837	11.91	5.20114e-08
47	17991	12.01	4.20881e-08
47	18141	12.11	3.31928e-08
47	18291	12.21	2.53001e-08
47	18441	12.31	1.83714e-08
47	18591	12.41	1.23581e-08
47	18741	12.51	7.2033e-09
47	18891	12.61	2.84555e-09
47	19041	12.71	-7.80176e-10
47	19191	12.81	-3.74065e-09
47	19341	12.91	-6.10232e-09
47	19495	13.01	-7.93019e-09
47	19645	13.11	-9.2875e-09
47	19795	13.21	-1.02345e-08
47	19945	13.31	-1.08278e-08
47	20095	13.41	-1.11202e-08
47	20245	13.51	-1.11603e-08
47	20395	13.61	-1.09935e-08
47	20545	13.71	-1.06596e-08
47	20695	13.81	-1.01943e-08
47	20845	13.91	-9.62999e-09
47	20999	14.01	-8.99423e-09
47	21149	14.11	-8.31104e-09
47	21299	14.21	-7.60174e-09
47	21449	14.31	-6.88321e-09
47	21599	14.41	-6.17053e-09
47	21749	14.51	-5.47526e-09
47	21899	14.61	-4.80682e-09
47	22049	14.71	-4.17213e-09
47	22199	14.81	-3.57652e-09
47	22349	14.91	-3.02407e-09
47	22503	15.01	-2.51639e-09
47	22653	15.11	-2.05471e-09
47	22803	15.21	-1.63922e-09
47	22953	15.31	-1.26885e-09
47	23103	15.41	-9.42357e-10
47	23253	15.51	-6.57607e-10
47	23403	15.61	-4.12115e-10
47	23553	15.71	-2.0357e-10
47	23703	15.81	-2.8777e-11
47	23853	15.91	1.15286e-10
47	24007	16.01	2.31459e-10
47	24157	16.11	3.22586e-10
47	24307	16.21	3.91509e-10
47	24457	16.31	4.40536e-10
47	24607	16.41	4.73399e-10
47	24757	16.51	4.91696e-10
47	24907	16.61	4.97913e-10
47	25057	16.71	4.9436e-10
47	25207	16.81	4.82281e-10
47	25357	16.91	4.63629e-10
47	25511	17.01	4.40181e-10
47	25661	17.11	4.13003e-10
47	25811	17.21	3.83338e-10
47	25961	17.31	3.51896e-10
47	26111	17.41	3.19922e-10
47	26261	17.51	2.87947e-10
47	26411	17.61	2.56506e-10
47	26561	17.71	2.26308e-10
47	26711	17.81	1.97531e-10
47	26861	17.91	1.70353e-10
47	27015	18.01	1.44951e-10
47	27165	18.11	1.21503e-10
47	27315	18.21	1.00009e-10
47	27465	18.31	8.06466e-11
47	27615	18.41	6.34159e-11
47	27765	18.51	4.81393e-11
47	27915	18.61	3.4639e-11
47	28065	18.71	2.2915e-11
47	28215	18.81	1.29674e-11
47	28365	18.91	4.44089e-12
47	28519	19.01	-2.66454e-12
47	28669	19.11	-8.17124e-12
47	28819	19.21	-1.26121e-11
47	28969	19.31	-1.61648e-11
47	29119	19.41	-1.86517e-11
47	29269	19.51	-2.04281e-11
47	29419	19.61	-2.16716e-11
47	29569	19.71	-2.16716e-11
47	29719	19.81	-2.16716e-11
47	29869	19.91	-2.16716e-11
47	30023	20.01	-2.14939e-11
47	30173	20.11	-1.97176e-11
47	30323	20.21	-1.79412e-11
47	30473	20.31	-1.61648e-11
47	30623	20.41	-1.43885e-11
47	30773	20.51	-1.29674e-11
47	30923	20.61	-1.1724e-11
47	31073	20.71	-1.04805e-11
47	31223	20.81	-9.59233e-12
47	31373	20.91	-8.70415e-12
47	31527	21.01	-7.81597e-12
47	31677	21.11	-7.10543e-12
47	31827	21.21	-6.39488e-12
47	31977	21.31	-5.68434e-12
47	32127	21.41	-5.15143e-12
47	32277	21.51	-4.79616e-12
47	32427	21.61	-4.26326e-12
47	32577	21.71	-3.90799e-12
47	32727	21.81	-3.55271e-12
47	32877	21.91	-3.19744e-12
47	33031	22.01	-2.84217e-12
47	33181	22.11	-2.66454e-12
47	33331	22.21	-2.30926e-12
47	33481	22.31	-2.13163e-12
47	33631	22.41	-1.95399e-12
47	33781	22.51	-1.77636e-12
47	33931	22.61	-1.59872e-12
47	34081	22.71	-1.42109e-12
47	34231	22.81	-1.24345e-12
47	34381	22.91	-1.06581e-12
47	34535	23.01	-1.06581e-12
47	34685	23.11	-8.88178e-13
47	34835	23.21	-8.88178e-13
47	34985	23.31	-7.10543e-13
47	35135	23.41	-7.10543e-13
47	35285	23.51	-7.10543e-13
47	35435	23.61	-5.32907e-13
47	35585	23.71	-5.32907e-13
47	35735	23.81	-5.32907e-13
47	35885	23.91	-3.55271e-13
47	36039	24.01	-3.55271e-13
47	36189	24.11	-3.55271e-13
47	36339	24.21	-3.55271e-13
47	36489	24.31	-3.55271e-13
47	36639	24.41	-1.77636e-13
47	36789	24.51	-1.77636e-13
47	36939	24.61	-1.77636e-13
47	37089	24.71	-1.77636e-13
47	37239	24.81	-1.77636e-13
47	37389	24.91	-1.77636e-13
47	37543	25.01	-1.77636e-13
47	37693	25.11	-1.77636e-13
47	37843	25.21	-1.77636e-13
47	37993	25.31	-1.77636e-13
47	38143	25.41	0
47	38293	25.51	0
47	38443	25.61	0
47	38593	25.71	0
47	38743	25.81	0
47	38893	25.91	0
47	39047	26.01	0
47	39197	26.11	0
47	39347	26.21	0
47	39497	26.31	0
47	39647	26.41	0
47	39797	26.51	0
47	39947	26.61	0
47	40097	26.71	0
47	40247	26.81	0
47	40397	26.91	0
47	40551	27.01	0
47	40701	27.11	0
47	40851	27.21	0
47	41001	27.31	0
47	41151	27.41	0
47	41301	27.51	0
47	41451	27.61	0
47	41601	27.71	0
47	41751	27.81	0
47	41901	27.91	0
47	42055	28.01	0
47	42205	28.11	0
47	42355	28.21	0
47	42505	28.31	0
47	42655	28.41	0
47	42805	28.51	0
47	42955	28.61	0
47	43105	28.71	0
47	43255	28.81	0
47	43405	28.91	0
47	43559	29.01	0
47	43709	29.11	0
47	43859	29.21	0
47	44009	29.31	0
47	44159	29.41	0
47	44309	29.51	0
47	44459	29.61	0
47	44609	29.71	0
47	44759	29.81	0
47	44909	29.91	0
47	45063	30.01	0
47	45213	30.11	0
47	45363	30.21	0
47	45513	30.31	0
47	45663	30.41	0
47	45813	30.51	0
47	45963	30.61	0
47	46113	30.71	0
47	46263	30.81	0
47	46413	30.91	0
47	46567	31.01	0
47	46717	31.11	0
47	46867	31.21	0
47	47017	31.31	0
47	47167	31.41	0
47	47317	31.51	0
47	47467	31.61	0
47	47617	31.71	0
47	47767	31.81	0
47	47917	31.91	0
47	48071	32.01	0
47	48221	32.11	0
47	48371	32.21	0
47	48521	32.31	0
47	48671	32.41	0
47	48821	32.51	0
47	48971	32.61	0
47	49121	32.71	0
47	49271	32.81	0
47	49421	32.91	0
47	49575	33.01	0
47	49725	33.11	0
47	49875	33.21	0
47	50025	33.31	0
47	50175	33.41	0
47	50325	33.51	0
47	50475	33.61	0
47	50625	33.71	0
47	50775	33.81	0
47	50925	33.91	0
51	26	0.21	1.6
51	176	0.31	1.6
51	326	0.41	1.6
51	476	0.51	1.6
51	626	0.61	1.6
51	776	0.71	1.6
51	926	0.81	1.6
51	1076	0.91	1.6
51	1230	1.01	1.6
51	1381	1.11	1.6
51	1532	1.21	1.6
51	1683	1.31	1.6
51	2046	1.41	1.6
51	2196	1.51	1.6
51	2346	1.61	1.6
51	2496	1.71	1.6
51	2646	1.81	1.6
51	2796	1.91	1.6
51	2950	2.01	1.6
51	3100	2.11	1.6
51	3250	2.21	1.6
51	3400	2.31	1.6
51	3550	2.41	1.6
51	3700	2.51	1.6
51	3850	2.61	1.6
51	4000	2.71	1.6
51	4150	2.81	1.6
51	4300	2.91	1.6
51	4454	3.01	1.6
51	4604	3.11	1.6
51	4754	3.21	1.6
51	4904	3.31	1.6
51	5054	3.41	1.6
51	5204	3.51	1.6
51	5354	3.61	1.6
51	5504	3.71	1.6
51	5654	3.81	1.6
51	5804	3.91	1.6
51	5958	4.01	1.6
51	6108	4.11	1.6
51	6258	4.21	1.6
51	6408	4.31	1.6
51	6558	4.41	1.6
51	6708	4.51	1.6
51	6858	4.61	1.6
51	7008	4.71	1.6
51	7158	4.81	1.6
51	7308	4.91	1.6
51	7462	5.01	1.6
51	7612	5.11	1.6
51	7762	5.21	1.6
51	7912	5.31	1.6
51	8062	5.41	1.6
51	8212	5.51	1.6
51	8362	5.61	1.6
51	8512	5.71	1.6
51	8662	5.81	1.6
51	8812	5.91	1.6
51	8966	6.01	1.6
51	9116	6.11	1.6
51	9266	6.21	1.6
51	9416	6.31	1.6
51	9566	6.41	1.6
51	9716	6.51	1.6
51	9866	6.61	1.6
51	10016	6.71	1.6
51	10166	6.81	1.6
51	10316	6.91	1.6
51	10470	7.01	1.6
51	10620	7.11	1.6
51	10770	7.21	1.6
51	10920	7.31	1.6
51	11070	7.41	1.6
51	11220	7.51	1.6
51	11370	7.61	1.6
51	11520	7.71	1.6
51	11670	7.81	1.6
51	11820	7.91	1.6
51	11974	8.01	1.6
51	12124	8.11	1.6
51	12274	8.21	1.6
51	12424	8.31	1.6
51	12574	8.41	1.6
51	12724	8.51	1.6
51	12874	8.61	1.6
51	13024	8.71	1.6
51	13174	8.81	1.6
51	13324	8.91	1.6
51	13478	9.01	1.6
51	13628	9.11	1.6
51	13778	9.21	1.6
51	13928	9.31	1.6
51	14078	9.41	1.6
51	14228	9.51	1.6
51	14378	9.61	1.6
51	14528	9.71	1.6
51	14678	9.81	1.6
51	14828	9.91	1.6
51	14982	10.01	1.6
51	15132	10.11	1.6
51	15282	10.21	1.6
51	15432	10.31	1.6
51	15582	10.41	1.6
51	15732	10.51	1.6
51	15882	10.61	1.6
51	16032	10.71	1.6
51	16182	10.81	1.6
51	16332	10.91	1.6
51	16486	11.01	1.6
51	16636	11.11	1.6
51	16786	11.21	1.6
51	16936	11.31	1.6
51	17087	11.41	1.6
51	17237	11.51	1.6
51	17387	11.61	1.6
51	17537	11.71	1.6
51	17687	11.81	1.6
51	17837	11.91	1.6
51	17991	12.01	1.6
51	18141	12.11	1.6
51	18291	12.21	1.6
51	18441	12.31	1.6
51	18591	12.41	1.6
51	18741	12.51	1.6
51	18891	12.61	1.6
51	19041	12.71	1.6
51	19191	12.81	1.6
51	19341	12.91	1.6
51	19495	13.01	1.6
51	19645	13.11	1.6
51	19795	13.21	1.6
51	19945	13.31	1.6
51	20095	13.41	1.6
51	20245	13.51	1.6
51	20395	13.61	1.6
51	20545	13.71	1.6
51	20695	13.81	1.6
51	20845	13.91	1.6
51	20999	14.01	1.6
51	21149	14.11	1.6
51	21299	14.21	1.6
51	21449	14.31	1.6
51	21599	14.41	1.6
51	21749	14.51	1.6
51	21899	14.61	1.6
51	22049	14.71	1.6
51	22199	14.81	1.6
51	22349	14.91	1.6
51	22503	15.01	1.6
51	22653	15.11	1.6
51	22803	15.21	1.6
51	22953	15.31	1.6
51	23103	15.41	1.6
51	23253	15.51	1.6
51	23403	15.61	1.6
51	23553	15.71	1.6
51	23703	15.81	1.6
51	23853	15.91	1.6
51	24007	16.01	1.6
51	24157	16.11	1.6
51	24307	16.21	1.6
51	24457	16.31	1.6
51	24607	16.41	1.6
51	24757	16.51	1.6
51	24907	16.61	1.6
51	25057	16.71	1.6
51	25207	16.81	1.6
51	25357	16.91	1.6
51	25511	17.01	1.6
51	25661	17.11	1.6
51	25811	17.21	1.6
51	25961	17.31	1.6
51	26111	17.41	1.6
51	26261	17.51	1.6
51	26411	17.61	1.6
51	26561	17.71	1.6
51	26711	17.81	1.6
51	26861	17.91	1.6
51	27015	18.01	1.6
51	27165	18.11	1.6
51	27315	18.21	1.6
51	27465	18.31	1.6
51	27615	18.41	1.6
51	27765	18.51	1.6
51	27915	18.61	1.6
51	28065	18.71	1.6
51	28215	18.81	1.6
51	28365	18.91	1.6
51	28519	19.01	1.6
51	28669	19.11	1.6
51	28819	19.21	1.6
51	28969	19.31	1.6
51	29119	19.41	1.6
51	29269	19.51	1.6
51	29419	19.61	1.6
51	29569	19.71	1.6
51	29719	19.81	1.6
51	29869	19.91	1.6
51	30023	20.01	1.6
51	30173	20.11	1.6
51	30323	20.21	1.6
51	30473	20.31	1.6
51	30623	20.41	1.6
51	30773	20.51	1.6
51	30923	20.61	1.6
51	31073	20.71	1.6
51	31223	20.81	1.6
51	31373	20.91	1.6
51	31527	21.01	1.6
51	31677	21.11	1.6
51	31827	21.21	1.6
51	31977	21.31	1.6
51	32127	21.41	1.6
51	32277	21.51	1.6
51	32427	21.61	1.6
51	32577	21.71	1.6
51	32727	21.81	1.6
51	32877	21.91	1.6
51	33031	22.01	1.6
51	33181	22.11	1.6
51	33331	22.21	1.6
51	33481	22.31	1.6
51	33631	22.41	1.6
51	33781	22.51	1.6
51	33931	22.61	1.6
51	34081	22.71	1.6
51	34231	22.81	1.6
51	34381	22.91	1.6
51	34535	23.01	1.6
51	34685	23.11	1.6
51	34835	23.21	1.6
51	34985	23.31	1.6
51	35135	23.41	1.6
51	35285	23.51	1.6
51	35435	23.61	1.6
51	35585	23.71	1.6
51	35735	23.81	1.6
51	35885	23.91	1.6
51	36039	24.01	1.6
51	36189	24.11	1.6
51	36339	24.21	1.6
51	36489	24.31	1.6
51	36639	24.41	1.6
51	36789	24.51	1.6
51	36939	24.61	1.6
51	37089	24.71	1.6
51	37239	24.81	1.6
51	37389	24.91	1.6
51	37543	25.01	1.6
51	37693	25.11	1.6
51	37843	25.21	1.6
51	37993	25.31	1.6
51	38143	25.41	1.6
51	38293	25.51	1.6
51	38443	25.61	1.6
51	38593	25.71	1.6
51	38743	25.81	1.6
51	38893	25.91	1.6
51	39047	26.01	1.6
51	39197	26.11	1.6
51	39347	26.21	1.6
51	39497	26.31	1.6
51	39647	26.41	1.6
51	39797	26.51	1.6
51	39947	26.61	1.6
51	40097	26.71	1.6
51	40247	26.81	1.6
51	40397	26.91	1.6
51	40551	27.01	1.6
51	40701	27.11	1.6
51	40851	27.21	1.6
51	41001	27.31	1.6
51	41151	27.41	1.6
51	41301	27.51	1.6
51	41451	27.61	1.6
51	41601	27.71	1.6
51	41751	27.81	1.6
51	41901	27.91	1.6
51	42055	28.01	1.6
51	42205	28.11	1.6
51	42355	28.21	1.6
51	42505	28.31	1.6
51	42655	28.41	1.6
51	42805	28.51	1.6
51	42955	28.61	1.6
51	43105	28.71	1.6
51	43255	28.81	1.6
51	43405	28.91	1.6
51	43559	29.01	1.6
51	43709	29.11	1.6
51	43859	29.21	1.6
51	44009	29.31	1.6
51	44159	29.41	1.6
51	44309	29.51	1.6
51	44459	29.61	1.6
51	44609	29.71	1.6
51	44759	29.81	1.6
51	44909	29.91	1.6
51	45063	30.01	1.6
51	45213	30.11	1.6
51	45363	30.21	1.6
51	45513	30.31	1.6
51	45663	30.41	1.6
51	45813	30.51	1.6
51	45963	30.61	1.6
51	46113	30.71	1.6
51	46263	30.81	1.6
51	46413	30.91	1.6
51	46567	31.01	1.6
51	46717	31.11	1.6
51	46867	31.21	1.6
51	47017	31.31	1.6
51	47167	31.41	1.6
51	47317	31.51	1.6
51	47467	31.61	1.6
51	47617	31.71	1.6
51	47767	31.81	1.6
51	47917	31.91	1.6
51	48071	32.01	1.6
51	48221	32.11	1.6
51	48371	32.21	1.6
51	48521	32.31	1.6
51	48671	32.41	1.6
51	48821	32.51	1.6
51	48971	32.61	1.6
51	49121	32.71	1.6
51	49271	32.81	1.6
51	49421	32.91	1.6
51	49575	33.01	1.6
51	49725	33.11	1.6
51	49875	33.21	1.6
51	50025	33.31	1.6
51	50175	33.41	1.6
51	50325	33.51	1.6
51	50475	33.61	1.6
51	50625	33.71	1.6
51	50775	33.81	1.6
51	50925	33.91	1.6
50	26	0.21	524.6
50	176	0.31	523.044
50	326	0.41	521.488
50	476	0.51	519.932
50	626	0.61	518.376
50	776	0.71	516.82
50	926	0.81	515.264
50	1076	0.91	513.708
50	1230	1.01	512.152
50	1381	1.11	510.596
50	1532	1.21	509.041
50	1683	1.31	507.485
50	2046	1.41	505.929
50	2196	1.51	504.374
50	2346	1.61	502.818
50	2496	1.71	501.262
50	2646	1.81	499.707
50	2796	1.91	498.151
50	2950	2.01	496.595
50	3100	2.11	495.04
50	3250	2.21	493.484
50	3400	2.31	491.929
50	3550	2.41	490.373
50	3700	2.51	488.817
50	3850	2.61	487.262
50	4000	2.71	485.706
50	4150	2.81	484.151
50	4300	2.91	482.595
50	4454	3.01	481.04
50	4604	3.11	479.484
50	4754	3.21	477.929
50	4904	3.31	476.373
50	5054	3.41	474.818
50	5204	3.51	473.262
50	5354	3.61	471.706
50	5504	3.71	470.151
50	5654	3.81	468.595
50	5804	3.91	467.04
50	5958	4.01	465.484
50	6108	4.11	463.929
50	6258	4.21	462.373
50	6408	4.31	460.818
50	6558	4.41	459.262
50	6708	4.51	457.707
50	6858	4.61	456.151
50	7008	4.71	454.595
50	7158	4.81	453.04
50	7308	4.91	451.484
50	7462	5.01	449.929
50	7612	5.11	448.373
50	7762	5.21	446.818
50	7912	5.31	445.262
50	8062	5.41	443.707
50	8212	5.51	442.151
50	8362	5.61	440.595
50	8512	5.71	439.04
50	8662	5.81	437.484
50	8812	5.91	435.929
50	8966	6.01	434.373
50	9116	6.11	432.818
50	9266	6.21	431.262
50	9416	6.31	429.706
50	9566	6.41	428.151
50	9716	6.51	426.595
50	9866	6.61	425.04
50	10016	6.71	423.484
50	10166	6.81	421.929
50	10316	6.91	420.373
50	10470	7.01	418.818
50	10620	7.11	417.262
50	10770	7.21	415.706
50	10920	7.31	414.151
50	11070	7.41	412.595
50	11220	7.51	411.04
50	11370	7.61	409.484
50	11520	7.71	407.929
50	11670	7.81	406.373
50	11820	7.91	404.817
50	11974	8.01	403.262
50	12124	8.11	401.706
50	12274	8.21	400.151
50	12424	8.31	398.595
50	12574	8.41	397.04
50	12724	8.51	395.484
50	12874	8.61	393.929
50	13024	8.71	392.373
50	13174	8.81	390.817
50	13324	8.91	389.262
50	13478	9.01	387.706
50	13628	9.11	386.151
50	13778	9.21	384.595
50	13928	9.31	383.04
50	14078	9.41	381.484
50	14228	9.51	379.929
50	14378	9.61	378.373
50	14528	9.71	376.817
50	14678	9.81	375.262
50	14828	9.91	373.706
50	14982	10.01	372.151
50	15132	10.11	370.595
50	15282	10.21	369.04
50	15432	10.31	367.484
50	15582	10.41	365.928
50	15732	10.51	364.373
50	15882	10.61	362.817
50	16032	10.71	361.262
50	16182	10.81	359.706
50	16332	10.91	358.151
50	16486	11.01	356.595
50	16636	11.11	355.04
50	16786	11.21	353.484
50	16936	11.31	351.928
50	17087	11.41	350.373
50	17237	11.51	348.817
50	17387	11.61	347.262
50	17537	11.71	345.706
50	17687	11.81	344.151
50	17837	11.91	342.595
50	17991	12.01	341.04
50	18141	12.11	339.484
50	18291	12.21	337.928
50	18441	12.31	336.373
50	18591	12.41	334.817
50	18741	12.51	333.262
50	18891	12.61	331.706
50	19041	12.71	330.151
50	19191	12.81	328.595
50	19341	12.91	327.039
50	19495	13.01	325.484
50	19645	13.11	323.928
50	19795	13.21	322.373
50	19945	13.31	320.817
50	20095	13.41	319.262
50	20245	13.51	317.706
50	20395	13.61	316.151
50	20545	13.71	314.595
50	20695	13.81	313.039
50	20845	13.91	311.484
50	20999	14.01	309.928
50	21149	14.11	308.373
50	21299	14.21	306.817
50	21449	14.31	305.262
50	21599	14.41	303.706
50	21749	14.51	302.151
50	21899	14.61	300.595
50	22049	14.71	299.039
50	22199	14.81	297.484
50	22349	14.91	295.928
50	22503	15.01	294.373
50	22653	15.11	292.817
50	22803	15.21	291.262
50	22953	15.31	289.706
50	23103	15.41	288.15
50	23253	15.51	286.595
50	23403	15.61	285.039
50	23553	15.71	283.484
50	23703	15.81	281.928
50	23853	15.91	280.373
50	24007	16.01	278.817
50	24157	16.11	277.262
50	24307	16.21	275.706
50	24457	16.31	274.15
50	24607	16.41	272.595
50	24757	16.51	271.039
50	24907	16.61	269.484
50	25057	16.71	267.928
50	25207	16.81	266.373
50	25357	16.91	264.817
50	25511	17.01	263.262
50	25661	17.11	261.706
50	25811	17.21	260.15
50	25961	17.31	258.595
50	26111	17.41	257.039
50	26261	17.51	255.484
50	26411	17.61	253.928
50	26561	17.71	252.373
50	26711	17.81	250.817
50	26861	17.91	249.261
50	27015	18.01	247.706
50	27165	18.11	246.15
50	27315	18.21	244.595
50	27465	18.31	243.039
50	27615	18.41	241.484
50	27765	18.51	239.928
50	27915	18.61	238.373
50	28065	18.71	236.817
50	28215	18.81	235.261
50	28365	18.91	233.706
50	28519	19.01	232.15
50	28669	19.11	230.595
50	28819	19.21	229.039
50	28969	19.31	227.484
50	29119	19.41	225.928
50	29269	19.51	224.373
50	29419	19.61	222.817
50	29569	19.71	221.261
50	29719	19.81	219.706
50	29869	19.91	218.15
50	30023	20.01	216.595
50	30173	20.11	215.039
50	30323	20.21	213.484
50	30473	20.31	211.928
50	30623	20.41	210.372
50	30773	20.51	208.817
50	30923	20.61	207.261
50	31073	20.71	205.706
50	31223	20.81	204.15
50	31373	20.91	202.595
50	31527	21.01	201.039
50	31677	21.11	199.484
50	31827	21.21	197.928
50	31977	21.31	196.372
50	32127	21.41	194.817
50	32277	21.51	193.261
50	32427	21.61	191.706
50	32577	21.71	190.15
50	32727	21.81	188.595
50	32877	21.91	187.039
50	33031	22.01	185.484
50	33181	22.11	183.928
50	33331	22.21	182.372
50	33481	22.31	180.817
50	33631	22.41	179.261
50	33781	22.51	177.706
50	33931	22.61	176.15
50	34081	22.71	174.595
50	34231	22.81	173.039
50	34381	22.91	171.483
50	34535	23.01	169.928
50	34685	23.11	168.372
50	34835	23.21	166.817
50	34985	23.31	165.261
50	35135	23.41	163.706
50	35285	23.51	162.15
50	35435	23.61	160.595
50	35585	23.71	159.039
50	35735	23.81	157.483
50	35885	23.91	155.928
50	36039	24.01	154.372
50	36189	24.11	152.817
50	36339	24.21	151.261
50	36489	24.31	149.706
50	36639	24.41	148.15
50	36789	24.51	146.595
50	36939	24.61	145.039
50	37089	24.71	143.483
50	37239	24.81	141.928
50	37389	24.91	140.372
50	37543	25.01	138.817
50	37693	25.11	137.261
50	37843	25.21	135.706
50	37993	25.31	134.15
50	38143	25.41	132.594
50	38293	25.51	131.039
50	38443	25.61	129.483
50	38593	25.71	127.928
50	38743	25.81	126.372
50	38893	25.91	124.817
50	39047	26.01	123.261
50	39197	26.11	121.706
50	39347	26.21	120.15
50	39497	26.31	118.594
50	39647	26.41	117.039
50	39797	26.51	115.483
50	39947	26.61	113.928
50	40097	26.71	112.372
50	40247	26.81	110.817
50	40397	26.91	109.261
50	40551	27.01	107.706
50	40701	27.11	106.15
50	40851	27.21	104.594
50	41001	27.31	103.039
50	41151	27.41	101.483
50	41301	27.51	99.9277
50	41451	27.61	98.3722
50	41601	27.71	96.8166
50	41751	27.81	95.2611
50	41901	27.91	93.7055
50	42055	28.01	92.1499
50	42205	28.11	90.5944
50	42355	28.21	89.0388
50	42505	28.31	87.4833
50	42655	28.41	85.9277
50	42805	28.51	84.3721
50	42955	28.61	82.8166
50	43105	28.71	81.261
50	43255	28.81	79.7055
50	43405	28.91	78.1499
50	43559	29.01	76.5943
50	43709	29.11	75.0388
50	43859	29.21	73.4832
50	44009	29.31	71.9277
50	44159	29.41	70.3721
50	44309	29.51	68.8165
50	44459	29.61	67.261
50	44609	29.71	65.7054
50	44759	29.81	64.1499
50	44909	29.91	62.5943
50	45063	30.01	61.0387
50	45213	30.11	59.4832
50	45363	30.21	57.9276
50	45513	30.31	56.3721
50	45663	30.41	54.8165
50	45813	30.51	53.2609
50	45963	30.61	51.7054
50	46113	30.71	50.1498
50	46263	30.81	48.5943
50	46413	30.91	47.0387
50	46567	31.01	45.4831
50	46717	31.11	43.9276
50	46867	31.21	42.372
50	47017	31.31	40.8165
50	47167	31.41	39.2609
50	47317	31.51	37.7053
50	47467	31.61	36.1498
50	47617	31.71	34.5942
50	47767	31.81	33.0387
50	47917	31.91	31.4831
50	48071	32.01	29.9275
50	48221	32.11	28.372
50	48371	32.21	26.8164
50	48521	32.31	25.2609
50	48671	32.41	23.7053
50	48821	32.51	22.1497
50	48971	32.61	20.5942
50	49121	32.71	19.0386
50	49271	32.81	17.4831
50	49421	32.91	15.9275
50	49575	33.01	14.3719
50	49725	33.11	12.8164
50	49875	33.21	11.2608
50	50025	33.31	9.70526
50	50175	33.41	8.1497
50	50325	33.51	6.59414
50	50475	33.61	5.03858
50	50625	33.71	3.48302
50	50775	33.81	1.92746
50	50925	33.91	0.371898
49	26	0.21	15.56
49	176	0.31	15.5599
49	326	0.41	15.5597
49	476	0.51	15.5595
49	626	0.61	15.5592
49	776	0.71	15.559
49	926	0.81	15.5587
49	1076	0.91	15.5584
49	1230	1.01	15.5581
49	1381	1.11	15.5579
49	1532	1.21	15.5576
49	1683	1.31	15.5573
49	2046	1.41	15.5571
49	2196	1.51	15.5569
49	2346	1.61	15.5567
49	2496	1.71	15.5565
49	2646	1.81	15.5563
49	2796	1.91	15.5562
49	2950	2.01	15.556
49	3100	2.11	15.5559
49	3250	2.21	15.5558
49	3400	2.31	15.5557
49	3550	2.41	15.5556
49	3700	2.51	15.5556
49	3850	2.61	15.5555
49	4000	2.71	15.5555
49	4150	2.81	15.5555
49	4300	2.91	15.5554
49	4454	3.01	15.5554
49	4604	3.11	15.5554
49	4754	3.21	15.5554
49	4904	3.31	15.5554
49	5054	3.41	15.5554
49	5204	3.51	15.5554
49	5354	3.61	15.5554
49	5504	3.71	15.5554
49	5654	3.81	15.5554
49	5804	3.91	15.5555
49	5958	4.01	15.5555
49	6108	4.11	15.5555
49	6258	4.21	15.5555
49	6408	4.31	15.5555
49	6558	4.41	15.5555
49	6708	4.51	15.5555
49	6858	4.61	15.5555
49	7008	4.71	15.5555
49	7158	4.81	15.5556
49	7308	4.91	15.5556
49	7462	5.01	15.5556
49	7612	5.11	15.5556
49	7762	5.21	15.5556
49	7912	5.31	15.5556
49	8062	5.41	15.5556
49	8212	5.51	15.5556
49	8362	5.61	15.5556
49	8512	5.71	15.5556
49	8662	5.81	15.5556
49	8812	5.91	15.5556
49	8966	6.01	15.5556
49	9116	6.11	15.5556
49	9266	6.21	15.5556
49	9416	6.31	15.5556
49	9566	6.41	15.5556
49	9716	6.51	15.5556
49	9866	6.61	15.5556
49	10016	6.71	15.5556
49	10166	6.81	15.5556
49	10316	6.91	15.5556
49	10470	7.01	15.5556
49	10620	7.11	15.5556
49	10770	7.21	15.5556
49	10920	7.31	15.5556
49	11070	7.41	15.5556
49	11220	7.51	15.5556
49	11370	7.61	15.5556
49	11520	7.71	15.5556
49	11670	7.81	15.5556
49	11820	7.91	15.5556
49	11974	8.01	15.5556
49	12124	8.11	15.5556
49	12274	8.21	15.5556
49	12424	8.31	15.5556
49	12574	8.41	15.5556
49	12724	8.51	15.5556
49	12874	8.61	15.5556
49	13024	8.71	15.5556
49	13174	8.81	15.5556
49	13324	8.91	15.5556
49	13478	9.01	15.5556
49	13628	9.11	15.5556
49	13778	9.21	15.5556
49	13928	9.31	15.5556
49	14078	9.41	15.5556
49	14228	9.51	15.5556
49	14378	9.61	15.5556
49	14528	9.71	15.5556
49	14678	9.81	15.5556
49	14828	9.91	15.5556
49	14982	10.01	15.5556
49	15132	10.11	15.5556
49	15282	10.21	15.5556
49	15432	10.31	15.5556
49	15582	10.41	15.5556
49	15732	10.51	15.5556
49	15882	10.61	15.5556
49	16032	10.71	15.5556
49	16182	10.81	15.5556
49	16332	10.91	15.5556
49	16486	11.01	15.5556
49	16636	11.11	15.5556
49	16786	11.21	15.5556
49	16936	11.31	15.5556
49	17087	11.41	15.5556
49	17237	11.51	15.5556
49	17387	11.61	15.5556
49	17537	11.71	15.5556
49	17687	11.81	15.5556
49	17837	11.91	15.5556
49	17991	12.01	15.5556
49	18141	12.11	15.5556
49	18291	12.21	15.5556
49	18441	12.31	15.5556
49	18591	12.41	15.5556
49	18741	12.51	15.5556
49	18891	12.61	15.5556
49	19041	12.71	15.5556
49	19191	12.81	15.5556
49	19341	12.91	15.5556
49	19495	13.01	15.5556
49	19645	13.11	15.5556
49	19795	13.21	15.5556
49	19945	13.31	15.5556
49	20095	13.41	15.5556
49	20245	13.51	15.5556
49	20395	13.61	15.5556
49	20545	13.71	15.5556
49	20695	13.81	15.5556
49	20845	13.91	15.5556
49	20999	14.01	15.5556
49	21149	14.11	15.5556
49	21299	14.21	15.5556
49	21449	14.31	15.5556
49	21599	14.41	15.5556
49	21749	14.51	15.5556
49	21899	14.61	15.5556
49	22049	14.71	15.5556
49	22199	14.81	15.5556
49	22349	14.91	15.5556
49	22503	15.01	15.5556
49	22653	15.11	15.5556
49	22803	15.21	15.5556
49	22953	15.31	15.5556
49	23103	15.41	15.5556
49	23253	15.51	15.5556
49	23403	15.61	15.5556
49	23553	15.71	15.5556
49	23703	15.81	15.5556
49	23853	15.91	15.5556
49	24007	16.01	15.5556
49	24157	16.11	15.5556
49	24307	16.21	15.5556
49	24457	16.31	15.5556
49	24607	16.41	15.5556
49	24757	16.51	15.5556
49	24907	16.61	15.5556
49	25057	16.71	15.5556
49	25207	16.81	15.5556
49	25357	16.91	15.5556
49	25511	17.01	15.5556
49	25661	17.11	15.5556
49	25811	17.21	15.5556
49	25961	17.31	15.5556
49	26111	17.41	15.5556
49	26261	17.51	15.5556
49	26411	17.61	15.5556
49	26561	17.71	15.5556
49	26711	17.81	15.5556
49	26861	17.91	15.5556
49	27015	18.01	15.5556
49	27165	18.11	15.5556
49	27315	18.21	15.5556
49	27465	18.31	15.5556
49	27615	18.41	15.5556
49	27765	18.51	15.5556
49	27915	18.61	15.5556
49	28065	18.71	15.5556
49	28215	18.81	15.5556
49	28365	18.91	15.5556
49	28519	19.01	15.5556
49	28669	19.11	15.5556
49	28819	19.21	15.5556
49	28969	19.31	15.5556
49	29119	19.41	15.5556
49	29269	19.51	15.5556
49	29419	19.61	15.5556
49	29569	19.71	15.5556
49	29719	19.81	15.5556
49	29869	19.91	15.5556
49	30023	20.01	15.5556
49	30173	20.11	15.5556
49	30323	20.21	15.5556
49	30473	20.31	15.5556
49	30623	20.41	15.5556
49	30773	20.51	15.5556
49	30923	20.61	15.5556
49	31073	20.71	15.5556
49	31223	20.81	15.5556
49	31373	20.91	15.5556
49	31527	21.01	15.5556
49	31677	21.11	15.5556
49	31827	21.21	15.5556
49	31977	21.31	15.5556
49	32127	21.41	15.5556
49	32277	21.51	15.5556
49	32427	21.61	15.5556
49	32577	21.71	15.5556
49	32727	21.81	15.5556
49	32877	21.91	15.5556
49	33031	22.01	15.5556
49	33181	22.11	15.5556
49	33331	22.21	15.5556
49	33481	22.31	15.5556
49	33631	22.41	15.5556
49	33781	22.51	15.5556
49	33931	22.61	15.5556
49	34081	22.71	15.5556
49	34231	22.81	15.5556
49	34381	22.91	15.5556
49	34535	23.01	15.5556
49	34685	23.11	15.5556
49	34835	23.21	15.5556
49	34985	23.31	15.5556
49	35135	23.41	15.5556
49	35285	23.51	15.5556
49	35435	23.61	15.5556
49	35585	23.71	15.5556
49	35735	23.81	15.5556
49	35885	23.91	15.5556
49	36039	24.01	15.5556
49	36189	24.11	15.5556
49	36339	24.21	15.5556
49	36489	24.31	15.5556
49	36639	24.41	15.5556
49	36789	24.51	15.5556
49	36939	24.61	15.5556
49	37089	24.71	15.5556
49	37239	24.81	15.5556
49	37389	24.91	15.5556
49	37543	25.01	15.5556
49	37693	25.11	15.5556
49	37843	25.21	15.5556
49	37993	25.31	15.5556
49	38143	25.41	15.5556
49	38293	25.51	15.5556
49	38443	25.61	15.5556
49	38593	25.71	15.5556
49	38743	25.81	15.5556
49	38893	25.91	15.5556
49	39047	26.01	15.5556
49	39197	26.11	15.5556
49	39347	26.21	15.5556
49	39497	26.31	15.5556
49	39647	26.41	15.5556
49	39797	26.51	15.5556
49	39947	26.61	15.5556
49	40097	26.71	15.5556
49	40247	26.81	15.5556
49	40397	26.91	15.5556
49	40551	27.01	15.5556
49	40701	27.11	15.5556
49	40851	27.21	15.5556
49	41001	27.31	15.5556
49	41151	27.41	15.5556
49	41301	27.51	15.5556
49	41451	27.61	15.5556
49	41601	27.71	15.5556
49	41751	27.81	15.5556
49	41901	27.91	15.5556
49	42055	28.01	15.5556
49	42205	28.11	15.5556
49	42355	28.21	15.5556
49	42505	28.31	15.5556
49	42655	28.41	15.5556
49	42805	28.51	15.5556
49	42955	28.61	15.5556
49	43105	28.71	15.5556
49	43255	28.81	15.5556
49	43405	28.91	15.5556
49	43559	29.01	15.5556
49	43709	29.11	15.5556
49	43859	29.21	15.5556
49	44009	29.31	15.5556
49	44159	29.41	15.5556
49	44309	29.51	15.5556
49	44459	29.61	15.5556
49	44609	29.71	15.5556
49	44759	29.81	15.5556
49	44909	29.91	15.5556
49	45063	30.01	15.5556
49	45213	30.11	15.5556
49	45363	30.21	15.5556
49	45513	30.31	15.5556
49	45663	30.41	15.5556
49	45813	30.51	15.5556
49	45963	30.61	15.5556
49	46113	30.71	15.5556
49	46263	30.81	15.5556
49	46413	30.91	15.5556
49	46567	31.01	15.5556
49	46717	31.11	15.5556
49	46867	31.21	15.5556
49	47017	31.31	15.5556
49	47167	31.41	15.5556
49	47317	31.51	15.5556
49	47467	31.61	15.5556
49	47617	31.71	15.5556
49	47767	31.81	15.5556
49	47917	31.91	15.5556
49	48071	32.01	15.5556
49	48221	32.11	15.5556
49	48371	32.21	15.5556
49	48521	32.31	15.5556
49	48671	32.41	15.5556
49	48821	32.51	15.5556
49	48971	32.61	15.5556
49	49121	32.71	15.5556
49	49271	32.81	15.5556
49	49421	32.91	15.5556
49	49575	33.01	15.5556
49	49725	33.11	15.5556
49	49875	33.21	15.5556
49	50025	33.31	15.5556
49	50175	33.41	15.5556
49	50325	33.51	15.5556
49	50475	33.61	15.5556
49	50625	33.71	15.5556
49	50775	33.81	15.5556
49	50925	33.91	15.5556
45	26	0.21	0
45	176	0.31	0
45	326	0.41	0
45	476	0.51	0
45	626	0.61	0
45	776	0.71	0
45	926	0.81	0
45	1076	0.91	0
45	1230	1.01	0
45	1381	1.11	0
45	1532	1.21	0
45	1683	1.31	0
45	2046	1.41	6.96468
45	2196	1.51	6.59434
45	2346	1.61	6.3175
45	2496	1.71	6.11737
45	2646	1.81	5.98015
45	2796	1.91	5.89454
45	2950	2.01	5.85127
45	3100	2.11	5.84273
45	3250	2.21	5.86268
45	3400	2.31	5.90599
45	3550	2.41	5.96847
45	3700	2.51	6.04668
45	3850	2.61	6.13778
45	4000	2.71	6.23947
45	4150	2.81	6.34983
45	4300	2.91	6.46731
45	4454	3.01	6.59063
45	4604	3.11	6.71873
45	4754	3.21	6.85077
45	4904	3.31	6.98604
45	5054	3.41	7.12394
45	5204	3.51	7.26402
45	5354	3.61	7.40587
45	5504	3.71	7.54919
45	5654	3.81	7.6937
45	5804	3.91	7.8392
45	5958	4.01	7.9855
45	6108	4.11	8.13246
45	6258	4.21	8.27997
45	6408	4.31	8.42792
45	6558	4.41	8.57624
45	6708	4.51	8.72486
45	6858	4.61	8.87373
45	7008	4.71	9.0228
45	7158	4.81	9.17203
45	7308	4.91	9.32141
45	7462	5.01	9.47089
45	7612	5.11	9.62047
45	7762	5.21	9.77012
45	7912	5.31	9.91983
45	8062	5.41	10.0696
45	8212	5.51	10.2194
45	8362	5.61	10.3692
45	8512	5.71	10.5191
45	8662	5.81	10.669
45	8812	5.91	10.8188
45	8966	6.01	10.9668
45	9116	6.11	11.1108
45	9266	6.21	11.2488
45	9416	6.31	11.3795
45	9566	6.41	11.5018
45	9716	6.51	11.6151
45	9866	6.61	11.7189
45	10016	6.71	11.8131
45	10166	6.81	11.8977
45	10316	6.91	11.9729
45	10470	7.01	12.0391
45	10620	7.11	12.0967
45	10770	7.21	12.1462
45	10920	7.31	12.1881
45	11070	7.41	12.2231
45	11220	7.51	12.2519
45	11370	7.61	12.2749
45	11520	7.71	12.2928
45	11670	7.81	12.3063
45	11820	7.91	12.3158
45	11974	8.01	12.322
45	12124	8.11	12.3252
45	12274	8.21	12.326
45	12424	8.31	12.3248
45	12574	8.41	12.322
45	12724	8.51	12.3179
45	12874	8.61	12.3128
45	13024	8.71	12.307
45	13174	8.81	12.3008
45	13324	8.91	12.2942
45	13478	9.01	12.2875
45	13628	9.11	12.2809
45	13778	9.21	12.2744
45	13928	9.31	12.2681
45	14078	9.41	12.2621
45	14228	9.51	12.2565
45	14378	9.61	12.2513
45	14528	9.71	12.2465
45	14678	9.81	12.2421
45	14828	9.91	12.2382
45	14982	10.01	12.2347
45	15132	10.11	12.2315
45	15282	10.21	12.2288
45	15432	10.31	12.2265
45	15582	10.41	12.2245
45	15732	10.51	12.2228
45	15882	10.61	12.2214
45	16032	10.71	12.2203
45	16182	10.81	12.2194
45	16332	10.91	12.2187
45	16486	11.01	12.2182
45	16636	11.11	12.2179
45	16786	11.21	12.2177
45	16936	11.31	12.2176
45	17087	11.41	0
45	17237	11.51	0
45	17387	11.61	0
45	17537	11.71	0
45	17687	11.81	0
45	17837	11.91	0
45	17991	12.01	0
45	18141	12.11	0
45	18291	12.21	0
45	18441	12.31	0
45	18591	12.41	0
45	18741	12.51	0
45	18891	12.61	0
45	19041	12.71	0
45	19191	12.81	0
45	19341	12.91	0
45	19495	13.01	0
45	19645	13.11	0
45	19795	13.21	0
45	19945	13.31	0
45	20095	13.41	0
45	20245	13.51	0
45	20395	13.61	0
45	20545	13.71	0
45	20695	13.81	0
45	20845	13.91	0
45	20999	14.01	0
45	21149	14.11	0
45	21299	14.21	0
45	21449	14.31	0
45	21599	14.41	0
45	21749	14.51	0
45	21899	14.61	0
45	22049	14.71	0
45	22199	14.81	0
45	22349	14.91	0
45	22503	15.01	0
45	22653	15.11	0
45	22803	15.21	0
45	22953	15.31	0
45	23103	15.41	0
45	23253	15.51	0
45	23403	15.61	0
45	23553	15.71	0
45	23703	15.81	0
45	23853	15.91	0
45	24007	16.01	0
45	24157	16.11	0
45	24307	16.21	0
45	24457	16.31	0
45	24607	16.41	0
45	24757	16.51	0
45	24907	16.61	0
45	25057	16.71	0
45	25207	16.81	0
45	25357	16.91	0
45	25511	17.01	0
45	25661	17.11	0
45	25811	17.21	0
45	25961	17.31	0
45	26111	17.41	0
45	26261	17.51	0
45	26411	17.61	0
45	26561	17.71	0
45	26711	17.81	0
45	26861	17.91	0
45	27015	18.01	0
45	27165	18.11	0
45	27315	18.21	0
45	27465	18.31	0
45	27615	18.41	0
45	27765	18.51	0
45	27915	18.61	0
45	28065	18.71	0
45	28215	18.81	0
45	28365	18.91	0
45	28519	19.01	0
45	28669	19.11	0
45	28819	19.21	0
45	28969	19.31	0
45	29119	19.41	0
45	29269	19.51	0
45	29419	19.61	0
45	29569	19.71	0
45	29719	19.81	0
45	29869	19.91	0
45	30023	20.01	0
45	30173	20.11	0
45	30323	20.21	0
45	30473	20.31	0
45	30623	20.41	0
45	30773	20.51	0
45	30923	20.61	0
45	31073	20.71	0
45	31223	20.81	0
45	31373	20.91	0
45	31527	21.01	0
45	31677	21.11	0
45	31827	21.21	0
45	31977	21.31	0
45	32127	21.41	0
45	32277	21.51	0
45	32427	21.61	0
45	32577	21.71	0
45	32727	21.81	0
45	32877	21.91	0
45	33031	22.01	0
45	33181	22.11	0
45	33331	22.21	0
45	33481	22.31	0
45	33631	22.41	0
45	33781	22.51	0
45	33931	22.61	0
45	34081	22.71	0
45	34231	22.81	0
45	34381	22.91	0
45	34535	23.01	0
45	34685	23.11	0
45	34835	23.21	0
45	34985	23.31	0
45	35135	23.41	0
45	35285	23.51	0
45	35435	23.61	0
45	35585	23.71	0
45	35735	23.81	0
45	35885	23.91	0
45	36039	24.01	0
45	36189	24.11	0
45	36339	24.21	0
45	36489	24.31	0
45	36639	24.41	0
45	36789	24.51	0
45	36939	24.61	0
45	37089	24.71	0
45	37239	24.81	0
45	37389	24.91	0
45	37543	25.01	0
45	37693	25.11	0
45	37843	25.21	0
45	37993	25.31	0
45	38143	25.41	0
45	38293	25.51	0
45	38443	25.61	0
45	38593	25.71	0
45	38743	25.81	0
45	38893	25.91	0
45	39047	26.01	0
45	39197	26.11	0
45	39347	26.21	0
45	39497	26.31	0
45	39647	26.41	0
45	39797	26.51	0
45	39947	26.61	0
45	40097	26.71	0
45	40247	26.81	0
45	40397	26.91	0
45	40551	27.01	0
45	40701	27.11	0
45	40851	27.21	0
45	41001	27.31	0
45	41151	27.41	0
45	41301	27.51	0
45	41451	27.61	0
45	41601	27.71	0
45	41751	27.81	0
45	41901	27.91	0
45	42055	28.01	0
45	42205	28.11	0
45	42355	28.21	0
45	42505	28.31	0
45	42655	28.41	0
45	42805	28.51	0
45	42955	28.61	0
45	43105	28.71	0
45	43255	28.81	0
45	43405	28.91	0
45	43559	29.01	0
45	43709	29.11	0
45	43859	29.21	0
45	44009	29.31	0
45	44159	29.41	0
45	44309	29.51	0
45	44459	29.61	0
45	44609	29.71	0
45	44759	29.81	0
45	44909	29.91	0
45	45063	30.01	0
45	45213	30.11	0
45	45363	30.21	0
45	45513	30.31	0
45	45663	30.41	0
45	45813	30.51	0
45	45963	30.61	0
45	46113	30.71	0
45	46263	30.81	0
45	46413	30.91	0
45	46567	31.01	0
45	46717	31.11	0
45	46867	31.21	0
45	47017	31.31	0
45	47167	31.41	0
45	47317	31.51	0
45	47467	31.61	0
45	47617	31.71	0
45	47767	31.81	0
45	47917	31.91	0
45	48071	32.01	0
45	48221	32.11	0
45	48371	32.21	0
45	48521	32.31	0
45	48671	32.41	0
45	48821	32.51	0
45	48971	32.61	0
45	49121	32.71	0
45	49271	32.81	0
45	49421	32.91	0
45	49575	33.01	0
45	49725	33.11	0
45	49875	33.21	0
45	50025	33.31	0
45	50175	33.41	0
45	50325	33.51	0
45	50475	33.61	0
45	50625	33.71	0
45	50775	33.81	0
45	50925	33.91	0
44	26	0.21	-1
44	176	0.31	-1
44	326	0.41	-1
44	476	0.51	-1
44	626	0.61	-1
44	776	0.71	-1
44	926	0.81	-1
44	1076	0.91	-1
44	1230	1.01	-1
44	1381	1.11	-1
44	1532	1.21	-1
44	1683	1.31	-1
44	2046	1.41	426.941
44	2196	1.51	423.153
44	2346	1.61	419.396
44	2496	1.71	415.664
44	2646	1.81	411.948
44	2796	1.91	408.244
44	2950	2.01	404.545
44	3100	2.11	400.85
44	3250	2.21	397.154
44	3400	2.31	393.454
44	3550	2.41	389.75
44	3700	2.51	386.038
44	3850	2.61	382.318
44	4000	2.71	378.588
44	4150	2.81	374.847
44	4300	2.91	371.095
44	4454	3.01	367.331
44	4604	3.11	363.555
44	4754	3.21	359.765
44	4904	3.31	355.962
44	5054	3.41	352.146
44	5204	3.51	348.315
44	5354	3.61	344.471
44	5504	3.71	340.612
44	5654	3.81	336.739
44	5804	3.91	332.851
44	5958	4.01	328.949
44	6108	4.11	325.032
44	6258	4.21	321.1
44	6408	4.31	317.153
44	6558	4.41	313.192
44	6708	4.51	309.216
44	6858	4.61	305.225
44	7008	4.71	301.219
44	7158	4.81	297.198
44	7308	4.91	293.162
44	7462	5.01	289.112
44	7612	5.11	285.046
44	7762	5.21	280.965
44	7912	5.31	276.87
44	8062	5.41	272.759
44	8212	5.51	268.634
44	8362	5.61	264.493
44	8512	5.71	260.337
44	8662	5.81	256.167
44	8812	5.91	251.981
44	8966	6.01	247.781
44	9116	6.11	243.566
44	9266	6.21	239.337
44	9416	6.31	235.094
44	9566	6.41	230.839
44	9716	6.51	226.572
44	9866	6.61	222.294
44	10016	6.71	218.006
44	10166	6.81	213.709
44	10316	6.91	209.405
44	10470	7.01	205.093
44	10620	7.11	200.775
44	10770	7.21	196.452
44	10920	7.31	192.124
44	11070	7.41	187.792
44	11220	7.51	183.457
44	11370	7.61	179.12
44	11520	7.71	174.78
44	11670	7.81	170.439
44	11820	7.91	166.097
44	11974	8.01	161.754
44	12124	8.11	157.41
44	12274	8.21	153.066
44	12424	8.31	148.723
44	12574	8.41	144.379
44	12724	8.51	140.036
44	12874	8.61	135.694
44	13024	8.71	131.351
44	13174	8.81	127.01
44	13324	8.91	122.669
44	13478	9.01	118.329
44	13628	9.11	113.989
44	13778	9.21	109.65
44	13928	9.31	105.312
44	14078	9.41	100.975
44	14228	9.51	96.6375
44	14378	9.61	92.3009
44	14528	9.71	87.9649
44	14678	9.81	83.6294
44	14828	9.91	79.2943
44	14982	10.01	74.9595
44	15132	10.11	70.6251
44	15282	10.21	66.2909
44	15432	10.31	61.9571
44	15582	10.41	57.6234
44	15732	10.51	53.2899
44	15882	10.61	48.9566
44	16032	10.71	44.6234
44	16182	10.81	40.2903
44	16332	10.91	35.9573
44	16486	11.01	31.6243
44	16636	11.11	27.2914
44	16786	11.21	22.9585
44	16936	11.31	18.6256
44	17087	11.41	-1
44	17237	11.51	-1
44	17387	11.61	-1
44	17537	11.71	-1
44	17687	11.81	-1
44	17837	11.91	-1
44	17991	12.01	-1
44	18141	12.11	-1
44	18291	12.21	-1
44	18441	12.31	-1
44	18591	12.41	-1
44	18741	12.51	-1
44	18891	12.61	-1
44	19041	12.71	-1
44	19191	12.81	-1
44	19341	12.91	-1
44	19495	13.01	-1
44	19645	13.11	-1
44	19795	13.21	-1
44	19945	13.31	-1
44	20095	13.41	-1
44	20245	13.51	-1
44	20395	13.61	-1
44	20545	13.71	-1
44	20695	13.81	-1
44	20845	13.91	-1
44	20999	14.01	-1
44	21149	14.11	-1
44	21299	14.21	-1
44	21449	14.31	-1
44	21599	14.41	-1
44	21749	14.51	-1
44	21899	14.61	-1
44	22049	14.71	-1
44	22199	14.81	-1
44	22349	14.91	-1
44	22503	15.01	-1
44	22653	15.11	-1
44	22803	15.21	-1
44	22953	15.31	-1
44	23103	15.41	-1
44	23253	15.51	-1
44	23403	15.61	-1
44	23553	15.71	-1
44	23703	15.81	-1
44	23853	15.91	-1
44	24007	16.01	-1
44	24157	16.11	-1
44	24307	16.21	-1
44	24457	16.31	-1
44	24607	16.41	-1
44	24757	16.51	-1
44	24907	16.61	-1
44	25057	16.71	-1
44	25207	16.81	-1
44	25357	16.91	-1
44	25511	17.01	-1
44	25661	17.11	-1
44	25811	17.21	-1
44	25961	17.31	-1
44	26111	17.41	-1
44	26261	17.51	-1
44	26411	17.61	-1
44	26561	17.71	-1
44	26711	17.81	-1
44	26861	17.91	-1
44	27015	18.01	-1
44	27165	18.11	-1
44	27315	18.21	-1
44	27465	18.31	-1
44	27615	18.41	-1
44	27765	18.51	-1
44	27915	18.61	-1
44	28065	18.71	-1
44	28215	18.81	-1
44	28365	18.91	-1
44	28519	19.01	-1
44	28669	19.11	-1
44	28819	19.21	-1
44	28969	19.31	-1
44	29119	19.41	-1
44	29269	19.51	-1
44	29419	19.61	-1
44	29569	19.71	-1
44	29719	19.81	-1
44	29869	19.91	-1
44	30023	20.01	-1
44	30173	20.11	-1
44	30323	20.21	-1
44	30473	20.31	-1
44	30623	20.41	-1
44	30773	20.51	-1
44	30923	20.61	-1
44	31073	20.71	-1
44	31223	20.81	-1
44	31373	20.91	-1
44	31527	21.01	-1
44	31677	21.11	-1
44	31827	21.21	-1
44	31977	21.31	-1
44	32127	21.41	-1
44	32277	21.51	-1
44	32427	21.61	-1
44	32577	21.71	-1
44	32727	21.81	-1
44	32877	21.91	-1
44	33031	22.01	-1
44	33181	22.11	-1
44	33331	22.21	-1
44	33481	22.31	-1
44	33631	22.41	-1
44	33781	22.51	-1
44	33931	22.61	-1
44	34081	22.71	-1
44	34231	22.81	-1
44	34381	22.91	-1
44	34535	23.01	-1
44	34685	23.11	-1
44	34835	23.21	-1
44	34985	23.31	-1
44	35135	23.41	-1
44	35285	23.51	-1
44	35435	23.61	-1
44	35585	23.71	-1
44	35735	23.81	-1
44	35885	23.91	-1
44	36039	24.01	-1
44	36189	24.11	-1
44	36339	24.21	-1
44	36489	24.31	-1
44	36639	24.41	-1
44	36789	24.51	-1
44	36939	24.61	-1
44	37089	24.71	-1
44	37239	24.81	-1
44	37389	24.91	-1
44	37543	25.01	-1
44	37693	25.11	-1
44	37843	25.21	-1
44	37993	25.31	-1
44	38143	25.41	-1
44	38293	25.51	-1
44	38443	25.61	-1
44	38593	25.71	-1
44	38743	25.81	-1
44	38893	25.91	-1
44	39047	26.01	-1
44	39197	26.11	-1
44	39347	26.21	-1
44	39497	26.31	-1
44	39647	26.41	-1
44	39797	26.51	-1
44	39947	26.61	-1
44	40097	26.71	-1
44	40247	26.81	-1
44	40397	26.91	-1
44	40551	27.01	-1
44	40701	27.11	-1
44	40851	27.21	-1
44	41001	27.31	-1
44	41151	27.41	-1
44	41301	27.51	-1
44	41451	27.61	-1
44	41601	27.71	-1
44	41751	27.81	-1
44	41901	27.91	-1
44	42055	28.01	-1
44	42205	28.11	-1
44	42355	28.21	-1
44	42505	28.31	-1
44	42655	28.41	-1
44	42805	28.51	-1
44	42955	28.61	-1
44	43105	28.71	-1
44	43255	28.81	-1
44	43405	28.91	-1
44	43559	29.01	-1
44	43709	29.11	-1
44	43859	29.21	-1
44	44009	29.31	-1
44	44159	29.41	-1
44	44309	29.51	-1
44	44459	29.61	-1
44	44609	29.71	-1
44	44759	29.81	-1
44	44909	29.91	-1
44	45063	30.01	-1
44	45213	30.11	-1
44	45363	30.21	-1
44	45513	30.31	-1
44	45663	30.41	-1
44	45813	30.51	-1
44	45963	30.61	-1
44	46113	30.71	-1
44	46263	30.81	-1
44	46413	30.91	-1
44	46567	31.01	-1
44	46717	31.11	-1
44	46867	31.21	-1
44	47017	31.31	-1
44	47167	31.41	-1
44	47317	31.51	-1
44	47467	31.61	-1
44	47617	31.71	-1
44	47767	31.81	-1
44	47917	31.91	-1
44	48071	32.01	-1
44	48221	32.11	-1
44	48371	32.21	-1
44	48521	32.31	-1
44	48671	32.41	-1
44	48821	32.51	-1
44	48971	32.61	-1
44	49121	32.71	-1
44	49271	32.81	-1
44	49421	32.91	-1
44	49575	33.01	-1
44	49725	33.11	-1
44	49875	33.21	-1
44	50025	33.31	-1
44	50175	33.41	-1
44	50325	33.51	-1
44	50475	33.61	-1
44	50625	33.71	-1
44	50775	33.81	-1
44	50925	33.91	-1
46	26	0.21	3
46	176	0.31	3
46	326	0.41	3
46	476	0.51	3
46	626	0.61	3
46	776	0.71	3
46	926	0.81	3
46	1076	0.91	3
46	1230	1.01	3
46	1381	1.11	3
46	1532	1.21	3
46	1683	1.31	3
46	2046	1.41	3
46	2196	1.51	3
46	2346	1.61	3
46	2496	1.71	3
46	2646	1.81	3
46	2796	1.91	3
46	2950	2.01	3
46	3100	2.11	3
46	3250	2.21	3
46	3400	2.31	3
46	3550	2.41	3
46	3700	2.51	3
46	3850	2.61	3
46	4000	2.71	3
46	4150	2.81	3
46	4300	2.91	3
46	4454	3.01	3
46	4604	3.11	3
46	4754	3.21	3
46	4904	3.31	3
46	5054	3.41	3
46	5204	3.51	3
46	5354	3.61	3
46	5504	3.71	3
46	5654	3.81	3
46	5804	3.91	3
46	5958	4.01	3
46	6108	4.11	3
46	6258	4.21	3
46	6408	4.31	3
46	6558	4.41	3
46	6708	4.51	3
46	6858	4.61	3
46	7008	4.71	3
46	7158	4.81	3
46	7308	4.91	3
46	7462	5.01	3
46	7612	5.11	3
46	7762	5.21	3
46	7912	5.31	3
46	8062	5.41	3
46	8212	5.51	3
46	8362	5.61	3
46	8512	5.71	3
46	8662	5.81	3
46	8812	5.91	3
46	8966	6.01	3
46	9116	6.11	3
46	9266	6.21	3
46	9416	6.31	3
46	9566	6.41	3
46	9716	6.51	3
46	9866	6.61	3
46	10016	6.71	3
46	10166	6.81	3
46	10316	6.91	3
46	10470	7.01	3
46	10620	7.11	3
46	10770	7.21	3
46	10920	7.31	3
46	11070	7.41	3
46	11220	7.51	3
46	11370	7.61	3
46	11520	7.71	3
46	11670	7.81	3
46	11820	7.91	3
46	11974	8.01	3
46	12124	8.11	3
46	12274	8.21	3
46	12424	8.31	3
46	12574	8.41	3
46	12724	8.51	3
46	12874	8.61	3
46	13024	8.71	3
46	13174	8.81	3
46	13324	8.91	3
46	13478	9.01	3
46	13628	9.11	3
46	13778	9.21	3
46	13928	9.31	3
46	14078	9.41	3
46	14228	9.51	3
46	14378	9.61	3
46	14528	9.71	3
46	14678	9.81	3
46	14828	9.91	3
46	14982	10.01	3
46	15132	10.11	3
46	15282	10.21	3
46	15432	10.31	3
46	15582	10.41	3
46	15732	10.51	3
46	15882	10.61	3
46	16032	10.71	3
46	16182	10.81	3
46	16332	10.91	3
46	16486	11.01	3
46	16636	11.11	3
46	16786	11.21	3
46	16936	11.31	3
46	17087	11.41	3
46	17237	11.51	3
46	17387	11.61	3
46	17537	11.71	3
46	17687	11.81	3
46	17837	11.91	3
46	17991	12.01	3
46	18141	12.11	3
46	18291	12.21	3
46	18441	12.31	3
46	18591	12.41	3
46	18741	12.51	3
46	18891	12.61	3
46	19041	12.71	3
46	19191	12.81	3
46	19341	12.91	3
46	19495	13.01	3
46	19645	13.11	3
46	19795	13.21	3
46	19945	13.31	3
46	20095	13.41	3
46	20245	13.51	3
46	20395	13.61	3
46	20545	13.71	3
46	20695	13.81	3
46	20845	13.91	3
46	20999	14.01	3
46	21149	14.11	3
46	21299	14.21	3
46	21449	14.31	3
46	21599	14.41	3
46	21749	14.51	3
46	21899	14.61	3
46	22049	14.71	3
46	22199	14.81	3
46	22349	14.91	3
46	22503	15.01	3
46	22653	15.11	3
46	22803	15.21	3
46	22953	15.31	3
46	23103	15.41	3
46	23253	15.51	3
46	23403	15.61	3
46	23553	15.71	3
46	23703	15.81	3
46	23853	15.91	3
46	24007	16.01	3
46	24157	16.11	3
46	24307	16.21	3
46	24457	16.31	3
46	24607	16.41	3
46	24757	16.51	3
46	24907	16.61	3
46	25057	16.71	3
46	25207	16.81	3
46	25357	16.91	3
46	25511	17.01	3
46	25661	17.11	3
46	25811	17.21	3
46	25961	17.31	3
46	26111	17.41	3
46	26261	17.51	3
46	26411	17.61	3
46	26561	17.71	3
46	26711	17.81	3
46	26861	17.91	3
46	27015	18.01	3
46	27165	18.11	3
46	27315	18.21	3
46	27465	18.31	3
46	27615	18.41	3
46	27765	18.51	3
46	27915	18.61	3
46	28065	18.71	3
46	28215	18.81	3
46	28365	18.91	3
46	28519	19.01	3
46	28669	19.11	3
46	28819	19.21	3
46	28969	19.31	3
46	29119	19.41	3
46	29269	19.51	3
46	29419	19.61	3
46	29569	19.71	3
46	29719	19.81	3
46	29869	19.91	3
46	30023	20.01	3
46	30173	20.11	3
46	30323	20.21	3
46	30473	20.31	3
46	30623	20.41	3
46	30773	20.51	3
46	30923	20.61	3
46	31073	20.71	3
46	31223	20.81	3
46	31373	20.91	3
46	31527	21.01	3
46	31677	21.11	3
46	31827	21.21	3
46	31977	21.31	3
46	32127	21.41	3
46	32277	21.51	3
46	32427	21.61	3
46	32577	21.71	3
46	32727	21.81	3
46	32877	21.91	3
46	33031	22.01	3
46	33181	22.11	3
46	33331	22.21	3
46	33481	22.31	3
46	33631	22.41	3
46	33781	22.51	3
46	33931	22.61	3
46	34081	22.71	3
46	34231	22.81	3
46	34381	22.91	3
46	34535	23.01	3
46	34685	23.11	3
46	34835	23.21	3
46	34985	23.31	3
46	35135	23.41	3
46	35285	23.51	3
46	35435	23.61	3
46	35585	23.71	3
46	35735	23.81	3
46	35885	23.91	3
46	36039	24.01	3
46	36189	24.11	3
46	36339	24.21	3
46	36489	24.31	3
46	36639	24.41	3
46	36789	24.51	3
46	36939	24.61	3
46	37089	24.71	3
46	37239	24.81	3
46	37389	24.91	3
46	37543	25.01	3
46	37693	25.11	3
46	37843	25.21	3
46	37993	25.31	3
46	38143	25.41	3
46	38293	25.51	3
46	38443	25.61	3
46	38593	25.71	3
46	38743	25.81	3
46	38893	25.91	3
46	39047	26.01	3
46	39197	26.11	3
46	39347	26.21	3
46	39497	26.31	3
46	39647	26.41	3
46	39797	26.51	3
46	39947	26.61	3
46	40097	26.71	3
46	40247	26.81	3
46	40397	26.91	3
46	40551	27.01	3
46	40701	27.11	3
46	40851	27.21	3
46	41001	27.31	3
46	41151	27.41	3
46	41301	27.51	3
46	41451	27.61	3
46	41601	27.71	3
46	41751	27.81	3
46	41901	27.91	3
46	42055	28.01	3
46	42205	28.11	3
46	42355	28.21	3
46	42505	28.31	3
46	42655	28.41	3
46	42805	28.51	3
46	42955	28.61	3
46	43105	28.71	3
46	43255	28.81	3
46	43405	28.91	3
46	43559	29.01	3
46	43709	29.11	3
46	43859	29.21	3
46	44009	29.31	3
46	44159	29.41	3
46	44309	29.51	3
46	44459	29.61	3
46	44609	29.71	3
46	44759	29.81	3
46	44909	29.91	3
46	45063	30.01	3
46	45213	30.11	3
46	45363	30.21	3
46	45513	30.31	3
46	45663	30.41	3
46	45813	30.51	3
46	45963	30.61	3
46	46113	30.71	3
46	46263	30.81	3
46	46413	30.91	3
46	46567	31.01	3
46	46717	31.11	3
46	46867	31.21	3
46	47017	31.31	3
46	47167	31.41	3
46	47317	31.51	3
46	47467	31.61	3
46	47617	31.71	3
46	47767	31.81	3
46	47917	31.91	3
46	48071	32.01	3
46	48221	32.11	3
46	48371	32.21	3
46	48521	32.31	3
46	48671	32.41	3
46	48821	32.51	3
46	48971	32.61	3
46	49121	32.71	3
46	49271	32.81	3
46	49421	32.91	3
46	49575	33.01	3
46	49725	33.11	3
46	49875	33.21	3
46	50025	33.31	3
46	50175	33.41	3
46	50325	33.51	3
46	50475	33.61	3
46	50625	33.71	3
46	50775	33.81	3
46	50925	33.91	3
67	1191	1	0
67	2911	2	0
67	4415	3	0
67	5919	4	0
67	7423	5	0
67	8927	6	0
67	10431	7	0
67	11935	8	0
67	13439	9	0
67	14943	10	0
67	16447	11	0
67	17952	12	0
67	19456	13	0
67	20960	14	0
67	22464	15	0
67	23968	16	0
67	25472	17	0
67	26976	18	0
67	28480	19	0
67	29984	20	0
67	31488	21	0
67	32992	22	0
67	34496	23	0
67	36000	24	0
67	37504	25	0
67	39008	26	0
67	40512	27	0
67	42016	28	0
67	43520	29	0
67	45024	30	0
67	46528	31	0
67	48032	32	0
67	49536	33	0
66	1191	1	0.009679
66	2911	2	0.013005844626
66	4415	3	0.01249
66	5919	4	0.01249
66	7423	5	0.01249
66	8927	6	0.01249
66	10431	7	0.01249
66	11935	8	0.01249
66	13439	9	0.01249
66	14943	10	0.01249
66	16447	11	0.01249
66	17952	12	0.01249
66	19456	13	0.01249
66	20960	14	0.01249
66	22464	15	0.01249
66	23968	16	0.01249
66	25472	17	0.01249
66	26976	18	0.01249
66	28480	19	0.01249
66	29984	20	0.01249
66	31488	21	0.01249
66	32992	22	0.01249
66	34496	23	0.01249
66	36000	24	0.01249
66	37504	25	0.01249
66	39008	26	0.01249
66	40512	27	0.01249
66	42016	28	0.01249
66	43520	29	0.01249
66	45024	30	0.01249
66	46528	31	0.01249
66	48032	32	0.01249
66	49536	33	0.01249
65	1191	1	3
65	2911	2	3
65	4415	3	3
65	5919	4	3
65	7423	5	3
65	8927	6	3
65	10431	7	3
65	11935	8	3
65	13439	9	3
65	14943	10	3
65	16447	11	3
65	17952	12	3
65	19456	13	3
65	20960	14	3
65	22464	15	3
65	23968	16	3
65	25472	17	3
65	26976	18	3
65	28480	19	3
65	29984	20	3
65	31488	21	3
65	32992	22	3
65	34496	23	3
65	36000	24	3
65	37504	25	3
65	39008	26	3
65	40512	27	3
65	42016	28	3
65	43520	29	3
65	45024	30	3
65	46528	31	3
65	48032	32	3
65	49536	33	3
19	15	0.13	2.2079912693184
19	16	0.14	2.2076802016502
19	17	0.15	2.2073753206761
19	18	0.16	2.2070765649152
19	19	0.17	2.2067838728878
19	20	0.18	2.2064971831289
19	21	0.19	2.2062164341987
19	22	0.2	2.205941564697
19	27	0.21	2.2056725132708
19	62	0.22	2.205409218629
19	97	0.23	2.20515161955
19	98	0.24	2.2048996548957
19	99	0.25	2.2046532636191
19	134	0.26	2.2044123847755
19	135	0.27	2.2041769575335
19	136	0.28	2.203946921183
19	137	0.29	2.203722215147
19	138	0.3	2.2035027789884
19	177	0.31	2.2032885524208
19	212	0.32	2.203079475317
19	247	0.33	2.202875487717
19	248	0.34	2.2026765298383
19	249	0.35	2.2024825420828
19	284	0.36	2.2022934650447
19	285	0.37	2.2021092395195
19	286	0.38	2.2019298065112
19	287	0.39	2.2017551072394
19	288	0.4	2.2015850831466
19	327	0.41	2.2014196759063
19	362	0.42	2.2012588274301
19	397	0.43	2.201102479872
19	398	0.44	2.2009505756382
19	399	0.45	2.2008030573919
19	434	0.46	2.2006598680595
19	435	0.47	2.200520950837
19	436	0.48	2.2003862491952
19	437	0.49	2.2002557068865
19	438	0.5	2.2001292679501
19	477	0.51	2.2000068767164
19	512	0.52	2.1998884778142
19	547	0.53	2.1997740161739
19	548	0.54	2.1996634370332
19	549	0.55	2.1995566859421
19	584	0.56	2.1994537087659
19	585	0.57	2.1993544516923
19	586	0.58	2.1992588612337
19	587	0.59	2.1991668842321
19	588	0.6	2.1990784678626
19	627	0.61	2.1989935596378
19	662	0.62	2.1989121074103
19	697	0.63	2.1988340593791
19	698	0.64	2.1987593640889
19	699	0.65	2.1986879704371
19	734	0.66	2.1986198276748
19	735	0.67	2.1985548854109
19	736	0.68	2.1984930936145
19	737	0.69	2.1984344026177
19	738	0.7	2.1983787631173
19	777	0.71	2.1983261261802
19	812	0.72	2.1982764432425
19	847	0.73	2.1982296661137
19	848	0.74	2.1981857469781
19	849	0.75	2.1981446383965
19	884	0.76	2.1981062933102
19	885	0.77	2.1980706650402
19	886	0.78	2.1980377072899
19	887	0.79	2.1980073741468
19	888	0.8	2.1979796200846
19	927	0.81	2.1979543999639
19	962	0.82	2.197931669032
19	997	0.83	2.1979113829282
19	998	0.84	2.1978934976797
19	999	0.85	2.1978779697066
19	1034	0.86	2.1978647558212
19	1035	0.87	2.1978538132288
19	1036	0.88	2.1978450995281
19	1037	0.89	2.1978385727128
19	1038	0.9	2.1978341911714
19	1077	0.91	2.1978319136872
19	1112	0.92	2.1978316994398
19	1147	0.93	2.1978335080043
19	1148	0.94	2.1978372993519
19	1149	0.95	2.1978430338501
19	1184	0.96	2.1978506722631
19	1185	0.97	2.1978601757506
19	1186	0.98	2.1978715058686
19	1187	0.99	2.1978846245684
19	1192	1	2.1978994941971
19	1231	1.01	2.1979160774974
19	1266	1.02	2.1979343376059
19	1301	1.03	2.1979542380531
19	1302	1.04	2.1979757427643
19	1303	1.05	2.1979988160565
19	1338	1.06	2.1980234226401
19	1339	1.07	2.1980495276156
19	1340	1.08	2.1980770964752
19	1341	1.09	2.1981060951006
19	1342	1.1	2.1981364897623
19	1382	1.11	2.1981682471185
19	1417	1.12	2.1982013342135
19	1452	1.13	2.1982357184785
19	1453	1.14	2.1982713677284
19	1454	1.15	2.1983082501611
19	1489	1.16	2.1983463343565
19	1490	1.17	2.1983855892756
19	1491	1.18	2.1984259842584
19	1492	1.19	2.1984674890222
19	1493	1.2	2.1985100736618
19	1533	1.21	2.1985537086458
19	1568	1.22	2.1985983648159
19	1603	1.23	2.198644013386
19	1604	1.24	2.1986906259401
19	1605	1.25	2.1987381744297
19	1640	1.26	2.1987866311747
19	1641	1.27	2.1988359688574
19	1642	1.28	2.1988861605253
19	1643	1.29	2.1989371795861
19	1644	1.3	2.1989889998068
19	1684	1.31	2.199041595312
19	1931	1.32	2.1990949405812
19	1966	1.33	2.1991490104487
19	1967	1.34	2.1992037801001
19	1968	1.35	2.1992592250695
19	2004	1.36	2.1993153212389
19	2005	1.37	2.1993720448359
19	2006	1.38	2.1994293724315
19	2007	1.39	2.1994872809375
19	2008	1.4	2.1995457476044
19	2047	1.41	2.1996047500198
19	2082	1.42	2.1996642661062
19	2117	1.43	2.1997242741175
19	2118	1.44	2.1997847526384
19	2119	1.45	2.1998456805815
19	2154	1.46	2.1999070371843
19	2155	1.47	2.1999688020082
19	2156	1.48	2.2000309549348
19	2157	1.49	2.2000934761641
19	2158	1.5	2.2001563462126
19	2197	1.51	2.2002195459106
19	2232	1.52	2.2002830563999
19	2267	1.53	2.2003468591312
19	2268	1.54	2.200410935861
19	2269	1.55	2.2004752686506
19	2304	1.56	2.2005398398632
19	2305	1.57	2.2006046321602
19	2306	1.58	2.2006696285006
19	2307	1.59	2.2007348121378
19	2308	1.6	2.2008001666161
19	2347	1.61	2.2008656757696
19	2382	1.62	2.2009313237188
19	2417	1.63	2.2009970948681
19	2418	1.64	2.2010629739048
19	2419	1.65	2.2011289457951
19	2454	1.66	2.2011949957811
19	2455	1.67	2.2012611093792
19	2456	1.68	2.2013272723782
19	2457	1.69	2.2013934708354
19	2458	1.7	2.2014596910742
19	2497	1.71	2.201525919683
19	2532	1.72	2.20159214351
19	2567	1.73	2.2016583496646
19	2568	1.74	2.2017245255101
19	2569	1.75	2.201790658665
19	2604	1.76	2.2018567369995
19	2605	1.77	2.2019227486309
19	2606	1.78	2.201988681923
19	2607	1.79	2.2020545254844
19	2608	1.8	2.2021202681637
19	2647	1.81	2.2021858990475
19	2682	1.82	2.20225140746
19	2717	1.83	2.202316782957
19	2718	1.84	2.2023820153265
19	2719	1.85	2.2024470945846
19	2754	1.86	2.2025120109726
19	2755	1.87	2.2025767549556
19	2756	1.88	2.2026413172197
19	2757	1.89	2.202705688669
19	2758	1.9	2.2027698604236
19	2797	1.91	2.2028338238168
19	2832	1.92	2.2028975703922
19	2867	1.93	2.2029610919029
19	2868	1.94	2.2030243803065
19	2869	1.95	2.2030874277655
19	2904	1.96	2.2031502266425
19	2905	1.97	2.203212769498
19	2906	1.98	2.2032750490906
19	2907	1.99	2.2033370583701
19	2912	2	2.2033987904797
19	2951	2.01	2.20346023875
19	2986	2.02	2.2035213966984
19	3021	2.03	2.2035822580268
19	3022	2.04	2.2036428166182
19	3023	2.05	2.2037030665351
19	3058	2.06	2.2037630020173
19	3059	2.07	2.2038226174789
19	3060	2.08	2.2038819075058
19	3061	2.09	2.2039408668552
19	3062	2.1	2.203999490451
19	3101	2.11	2.204057773382
19	3136	2.12	2.2041157109017
19	3171	2.13	2.2041732984231
19	3172	2.14	2.2042305315185
19	3173	2.15	2.2042874059152
19	3208	2.16	2.2043439174965
19	3209	2.17	2.2044000622965
19	3210	2.18	2.2044558364985
19	3211	2.19	2.2045112364344
19	3212	2.2	2.2045662585811
19	3251	2.21	2.2046208995588
19	3286	2.22	2.204675156128
19	3321	2.23	2.2047290251887
19	3322	2.24	2.2047825037773
19	3323	2.25	2.2048355890651
19	3358	2.26	2.2048882783563
19	3359	2.27	2.2049405690845
19	3360	2.28	2.2049924588135
19	3361	2.29	2.2050439452317
19	3362	2.3	2.2050950261533
19	3401	2.31	2.2051456995137
19	3436	2.32	2.2051959633698
19	3471	2.33	2.2052458158963
19	3472	2.34	2.2052952553845
19	3473	2.35	2.20534428024
19	3508	2.36	2.205392888981
19	3509	2.37	2.205441080236
19	3510	2.38	2.2054888527433
19	3511	2.39	2.2055362053472
19	3512	2.4	2.2055831369972
19	3551	2.41	2.2056296467453
19	3586	2.42	2.2056757337463
19	3621	2.43	2.2057213972529
19	3622	2.44	2.2057666366165
19	3623	2.45	2.205811451284
19	3658	2.46	2.2058558407962
19	3659	2.47	2.2058998047869
19	3660	2.48	2.20594334298
19	3661	2.49	2.2059864551881
19	3662	2.5	2.2060291413117
19	3701	2.51	2.2060714013357
19	3736	2.52	2.2061132353298
19	3771	2.53	2.2061546434456
19	3772	2.54	2.2061956259153
19	3773	2.55	2.2062361830498
19	3808	2.56	2.2062763152375
19	3809	2.57	2.2063160229422
19	3810	2.58	2.2063553067021
19	3811	2.59	2.2063941671281
19	3812	2.6	2.2064326049014
19	3851	2.61	2.2064706207736
19	3886	2.62	2.2065082155639
19	3921	2.63	2.2065453901575
19	3922	2.64	2.2065821455053
19	3923	2.65	2.206618482621
19	3958	2.66	2.2066544025815
19	3959	2.67	2.2066899065238
19	3960	2.68	2.2067249956445
19	3961	2.69	2.2067596711973
19	3962	2.7	2.2067939344929
19	4001	2.71	2.206827786897
19	4036	2.72	2.2068612298291
19	4071	2.73	2.2068942647611
19	4072	2.74	2.2069268932167
19	4073	2.75	2.2069591167678
19	4108	2.76	2.206990937037
19	4109	2.77	2.207022355692
19	4110	2.78	2.2070533744483
19	4111	2.79	2.2070839950652
19	4112	2.8	2.207114219346
19	4151	2.81	2.2071440491357
19	4186	2.82	2.2071734863212
19	4221	2.83	2.2072025328288
19	4222	2.84	2.2072311906246
19	4223	2.85	2.2072594617111
19	4258	2.86	2.2072873481278
19	4259	2.87	2.2073148519498
19	4260	2.88	2.2073419752864
19	4261	2.89	2.2073687202808
19	4262	2.9	2.2073950891067
19	4301	2.91	2.2074210839707
19	4336	2.92	2.2074467071085
19	4371	2.93	2.2074719607848
19	4372	2.94	2.2074968472933
19	4373	2.95	2.2075213689533
19	4408	2.96	2.2075455281108
19	4409	2.97	2.2075693271377
19	4410	2.98	2.2075927684282
19	4411	2.99	2.2076158544016
19	4416	3	2.2076385874983
19	4455	3.01	2.2076609701799
19	4490	3.02	2.2076830049286
19	4525	3.03	2.2077046942472
19	4526	3.04	2.2077260406554
19	4527	3.05	2.207747046692
19	4562	3.06	2.2077677149125
19	4563	3.07	2.2077880478886
19	4564	3.08	2.2078080482066
19	4565	3.09	2.2078277184679
19	4566	3.1	2.2078470612871
19	4605	3.11	2.2078660792924
19	4640	3.12	2.2078847751242
19	4675	3.13	2.2079031514337
19	4676	3.14	2.2079212108834
19	4677	3.15	2.207938956145
19	4712	3.16	2.2079563899
19	4713	3.17	2.2079735148376
19	4714	3.18	2.2079903336559
19	4715	3.19	2.208006849059
19	4716	3.2	2.2080230637587
19	4755	3.21	2.2080389804714
19	4790	3.22	2.2080546019193
19	4825	3.23	2.2080699308293
19	4826	3.24	2.2080849699319
19	4827	3.25	2.2080997219609
19	4862	3.26	2.2081141896527
19	4863	3.27	2.2081283757455
19	4864	3.28	2.2081422829792
19	4865	3.29	2.2081559140953
19	4866	3.3	2.2081692718354
19	4905	3.31	2.2081823589399
19	4940	3.32	2.2081951781503
19	4975	3.33	2.2082077322053
19	4976	3.34	2.2082200238427
19	4977	3.35	2.2082320557978
19	5012	3.36	2.2082438308034
19	5013	3.37	2.2082553515892
19	5014	3.38	2.2082666208803
19	5015	3.39	2.2082776413989
19	5016	3.4	2.2082884158617
19	5055	3.41	2.2082989469813
19	5090	3.42	2.2083092374637
19	5125	3.43	2.2083192900103
19	5126	3.44	2.2083291073148
19	5127	3.45	2.2083386920651
19	5162	3.46	2.2083480469413
19	5163	3.47	2.2083571746168
19	5164	3.48	2.2083660777569
19	5165	3.49	2.2083747590187
19	5166	3.5	2.2083832210504
19	5205	3.51	2.2083914664916
19	5240	3.52	2.208399497972
19	5275	3.53	2.2084073181123
19	5276	3.54	2.2084149295233
19	5277	3.55	2.2084223348053
19	5312	3.56	2.208429536548
19	5313	3.57	2.2084365373301
19	5314	3.58	2.2084433397189
19	5315	3.59	2.2084499462714
19	5316	3.6	2.2084563595319
19	5355	3.61	2.2084625820331
19	5390	3.62	2.2084686162948
19	5425	3.63	2.2084744648252
19	5426	3.64	2.2084801301193
19	5427	3.65	2.2084856146588
19	5462	3.66	2.2084909209128
19	5463	3.67	2.2084960513368
19	5464	3.68	2.208501008372
19	5465	3.69	2.2085057944467
19	5466	3.7	2.208510411974
19	5505	3.71	2.2085148633535
19	5540	3.72	2.2085191509704
19	5575	3.73	2.2085232771953
19	5576	3.74	2.2085272443829
19	5577	3.75	2.2085310548747
19	5612	3.76	2.2085347109949
19	5613	3.77	2.2085382150544
19	5614	3.78	2.2085415693469
19	5615	3.79	2.2085447761521
19	5616	3.8	2.2085478377324
19	5655	3.81	2.2085507563352
19	5690	3.82	2.2085535341916
19	5725	3.83	2.208556173517
19	5726	3.84	2.2085586765099
19	5727	3.85	2.2085610453531
19	5762	3.86	2.2085632822121
19	5763	3.87	2.2085653892362
19	5764	3.88	2.2085673685581
19	5765	3.89	2.2085692222935
19	5766	3.9	2.2085709525417
19	5805	3.91	2.2085725613843
19	5840	3.92	2.2085740508866
19	5875	3.93	2.2085754230963
19	5876	3.94	2.2085766800447
19	5877	3.95	2.2085778237446
19	5912	3.96	2.2085788561928
19	5913	3.97	2.208579779368
19	5914	3.98	2.2085805952323
19	5915	3.99	2.208581305729
19	5920	4	2.2085819127853
19	5959	4.01	2.2085824183105
19	5994	4.02	2.2085828241958
19	6029	4.03	2.2085831323156
19	6030	4.04	2.2085833445263
19	6031	4.05	2.208583462667
19	6066	4.06	2.2085834885591
19	6067	4.07	2.2085834240061
19	6068	4.08	2.2085832707942
19	6069	4.09	2.2085830306919
19	6070	4.1	2.2085827054499
19	6109	4.11	2.2085822968011
19	6144	4.12	2.2085818064613
19	6179	4.13	2.208581236128
19	6180	4.14	2.208580587482
19	6181	4.15	2.2085798621859
19	6216	4.16	2.2085790618848
19	6217	4.17	2.2085781882065
19	6218	4.18	2.2085772427605
19	6219	4.19	2.2085762271401
19	6220	4.2	2.20857514292
19	6259	4.21	2.2085739916578
19	6294	4.22	2.208572774894
19	6329	4.23	2.2085714941511
19	6330	4.24	2.208570150935
19	6331	4.25	2.2085687467343
19	6366	4.26	2.2085672830197
19	6367	4.27	2.2085657612451
19	6368	4.28	2.2085641828472
19	6369	4.29	2.2085625492461
19	6370	4.3	2.2085608618446
19	6409	4.31	2.2085591220278
19	6444	4.32	2.2085573311653
19	6479	4.33	2.2085554906086
19	6480	4.34	2.2085536016934
19	6481	4.35	2.208551665738
19	6516	4.36	2.2085496840444
19	6517	4.37	2.2085476578977
19	6518	4.38	2.2085455885675
19	6519	4.39	2.2085434773055
19	6520	4.4	2.2085413253482
19	6559	4.41	2.2085391339156
19	6594	4.42	2.2085369042114
19	6629	4.43	2.2085346374233
19	6630	4.44	2.2085323347222
19	6631	4.45	2.2085299972647
19	6666	4.46	2.2085276261898
19	6667	4.47	2.208525222622
19	6668	4.48	2.20852278767
19	6669	4.49	2.208520322426
19	6670	4.5	2.2085178279676
19	6709	4.51	2.2085153053564
19	6744	4.52	2.20851275564
19	6779	4.53	2.2085101798486
19	6780	4.54	2.2085075789991
19	6781	4.55	2.2085049540932
19	6816	4.56	2.2085023061171
19	6817	4.57	2.2084996360416
19	6818	4.58	2.2084969448243
19	6819	4.59	2.2084942334075
19	6820	4.6	2.2084915027184
19	6859	4.61	2.2084887536707
19	6894	4.62	2.208485987163
19	6929	4.63	2.2084832040802
19	6930	4.64	2.2084804052933
19	6931	4.65	2.2084775916586
19	6966	4.66	2.208474764019
19	6967	4.67	2.2084719232038
19	6968	4.68	2.2084690700286
19	6969	4.69	2.2084662052947
19	6970	4.7	2.2084633297908
19	7009	4.71	2.2084604442912
19	7044	4.72	2.2084575495585
19	7079	4.73	2.208454646341
19	7080	4.74	2.2084517353743
19	7081	4.75	2.2084488173812
19	7116	4.76	2.2084458930713
19	7117	4.77	2.2084429631423
19	7118	4.78	2.2084400282789
19	7119	4.79	2.2084370891526
[...]
2	61782	55.23	931.55726268403
2	61783	55.24	931.69615168374
2	61784	55.25	931.83504068346
2	61803	55.26	931.97392968317
2	61804	55.27	932.11281868289
2	61805	55.28	932.2517076826
2	61806	55.29	932.39059668231
2	61807	55.3	932.52948568203
2	61810	55.31	932.66837468175
2	61811	55.32	932.80726368146
2	61830	55.33	932.94615268118
2	61831	55.34	933.0850416809
2	61832	55.35	933.22393068061
2	61851	55.36	933.36281968033
2	61852	55.37	933.50170868005
2	61853	55.38	933.64059767977
2	61854	55.39	933.77948667949
2	61855	55.4	933.91837567921
2	61858	55.41	934.05726467893
2	61859	55.42	934.19615367865
2	61878	55.43	934.33504267837
2	61879	55.44	934.47393167809
2	61880	55.45	934.61282067782
2	61899	55.46	934.75170967754
2	61900	55.47	934.89059867726
2	61901	55.48	935.02948767698
2	61902	55.49	935.16837667671
2	61903	55.5	935.30726567643
2	61906	55.51	935.44615467616
2	61907	55.52	935.58504367588
2	61926	55.53	935.72393267561
2	61927	55.54	935.86282167533
2	61928	55.55	936.00171067506
2	61947	55.56	936.14059967479
2	61948	55.57	936.27948867451
2	61949	55.58	936.41837767424
2	61950	55.59	936.55726667397
2	61951	55.6	936.6961556737
2	61954	55.61	936.83504467343
2	61955	55.62	936.97393367316
2	61974	55.63	937.11282267289
2	61975	55.64	937.25171167262
2	61976	55.65	937.39060067235
2	61995	55.66	937.52948967208
2	61996	55.67	937.66837867181
2	61997	55.68	937.80726767154
2	61998	55.69	937.94615667127
2	61999	55.7	938.08504567101
2	62002	55.71	938.22393467074
2	62003	55.72	938.36282367047
2	62022	55.73	938.50171267021
2	62023	55.74	938.64060166994
2	62024	55.75	938.77949066968
2	62043	55.76	938.91837966941
2	62044	55.77	939.05726866915
2	62045	55.78	939.19615766888
2	62046	55.79	939.33504666862
2	62047	55.8	939.47393566836
2	62050	55.81	939.61282466809
2	62051	55.82	939.75171366783
2	62070	55.83	939.89060266757
2	62071	55.84	940.02949166731
2	62072	55.85	940.16838066705
2	62091	55.86	940.30726966679
2	62092	55.87	940.44615866653
2	62093	55.88	940.58504766627
2	62094	55.89	940.72393666601
2	62095	55.9	940.86282566575
2	62098	55.91	941.00171466549
2	62099	55.92	941.14060366523
2	62118	55.93	941.27949266497
2	62119	55.94	941.41838166472
2	62120	55.95	941.55727066446
2	62139	55.96	941.6961596642
2	62140	55.97	941.83504866395
2	62141	55.98	941.97393766369
2	62142	55.99	942.11282666343
2	62145	56	942.25171566318
2	62148	56.01	942.39060466292
2	62149	56.02	942.52949366267
2	62168	56.03	942.66838266242
2	62169	56.04	942.80727166216
2	62170	56.05	942.94616066191
2	62189	56.06	943.08504966166
2	62190	56.07	943.2239386614
2	62191	56.08	943.36282766115
2	62192	56.09	943.5017166609
2	62193	56.1	943.64060566065
2	62196	56.11	943.7794946604
2	62197	56.12	943.91838366015
2	62216	56.13	944.0572726599
2	62217	56.14	944.19616165965
2	62218	56.15	944.3350506594
2	62237	56.16	944.47393965915
2	62238	56.17	944.6128286589
2	62239	56.18	944.75171765866
2	62240	56.19	944.89060665841
2	62241	56.2	945.02949565816
2	62244	56.21	945.16838465791
2	62245	56.22	945.30727365767
2	62264	56.23	945.44616265742
2	62265	56.24	945.58505165718
2	62266	56.25	945.72394065693
2	62285	56.26	945.86282965669
2	62286	56.27	946.00171865644
2	62287	56.28	946.1406076562
2	62288	56.29	946.27949665595
2	62289	56.3	946.41838565571
2	62292	56.31	946.55727465547
2	62293	56.32	946.69616365522
2	62312	56.33	946.83505265498
2	62313	56.34	946.97394165474
2	62314	56.35	947.1128306545
2	62333	56.36	947.25171965426
2	62334	56.37	947.39060865402
2	62335	56.38	947.52949765378
2	62336	56.39	947.66838665354
2	62337	56.4	947.8072756533
2	62340	56.41	947.94616465306
2	62341	56.42	948.08505365282
2	62360	56.43	948.22394265258
2	62361	56.44	948.36283165234
2	62362	56.45	948.5017206521
2	62381	56.46	948.64060965187
2	62382	56.47	948.77949865163
2	62383	56.48	948.91838765139
2	62384	56.49	949.05727665116
2	62385	56.5	949.19616565092
2	62388	56.51	949.33505465069
2	62389	56.52	949.47394365045
2	62408	56.53	949.61283265022
2	62409	56.54	949.75172164998
2	62410	56.55	949.89061064975
2	62429	56.56	950.02949964951
2	62430	56.57	950.16838864928
2	62431	56.58	950.30727764905
2	62432	56.59	950.44616664881
2	62433	56.6	950.58505564858
2	62436	56.61	950.72394464835
2	62437	56.62	950.86283364812
2	62456	56.63	951.00172264789
2	62457	56.64	951.14061164766
2	62458	56.65	951.27950064743
2	62477	56.66	951.4183896472
2	62478	56.67	951.55727864697
2	62479	56.68	951.69616764674
2	62480	56.69	951.83505664651
2	62481	56.7	951.97394564628
2	62484	56.71	952.11283464605
2	62485	56.72	952.25172364582
2	62504	56.73	952.3906126456
2	62505	56.74	952.52950164537
2	62506	56.75	952.66839064514
2	62525	56.76	952.80727964491
2	62526	56.77	952.94616864469
2	62527	56.78	953.08505764446
2	62528	56.79	953.22394664424
2	62529	56.8	953.36283564401
2	62532	56.81	953.50172464379
2	62533	56.82	953.64061364356
2	62552	56.83	953.77950264334
2	62553	56.84	953.91839164312
2	62554	56.85	954.05728064289
2	62573	56.86	954.19616964267
2	62574	56.87	954.33505864245
2	62575	56.88	954.47394764222
2	62576	56.89	954.612836642
2	62577	56.9	954.75172564178
2	62580	56.91	954.89061464156
2	62581	56.92	955.02950364134
2	62600	56.93	955.16839264112
2	62601	56.94	955.3072816409
2	62602	56.95	955.44617064068
2	62621	56.96	955.58505964046
2	62622	56.97	955.72394864024
2	62623	56.98	955.86283764002
2	62624	56.99	956.0017266398
2	62627	57	956.14061563958
2	62630	57.01	956.27950463937
2	62631	57.02	956.41839363915
2	62650	57.03	956.55728263893
2	62651	57.04	956.69617163871
2	62652	57.05	956.8350606385
2	62671	57.06	956.97394963828
2	62672	57.07	957.11283863806
2	62673	57.08	957.25172763785
2	62674	57.09	957.39061663763
2	62675	57.1	957.52950563742
2	62678	57.11	957.66839463721
2	62679	57.12	957.80728363699
2	62698	57.13	957.94617263678
2	62699	57.14	958.08506163656
2	62700	57.15	958.22395063635
2	62719	57.16	958.36283963614
2	62720	57.17	958.50172863593
2	62721	57.18	958.64061763571
2	62722	57.19	958.7795066355
2	62723	57.2	958.91839563529
2	62726	57.21	959.05728463508
2	62727	57.22	959.19617363487
2	62746	57.23	959.33506263466
2	62747	57.24	959.47395163445
2	62748	57.25	959.61284063424
2	62767	57.26	959.75172963403
2	62768	57.27	959.89061863382
2	62769	57.28	960.02950763361
2	62770	57.29	960.1683966334
2	62771	57.3	960.30728563319
2	62774	57.31	960.44617463299
2	62775	57.32	960.58506363278
2	62794	57.33	960.72395263257
2	62795	57.34	960.86284163236
2	62796	57.35	961.00173063216
2	62815	57.36	961.14061963195
2	62816	57.37	961.27950863174
2	62817	57.38	961.41839763154
2	62818	57.39	961.55728663133
2	62819	57.4	961.69617563113
2	62822	57.41	961.83506463092
2	62823	57.42	961.97395363072
2	62842	57.43	962.11284263052
2	62843	57.44	962.25173163031
2	62844	57.45	962.39062063011
2	62863	57.46	962.52950962991
2	62864	57.47	962.6683986297
2	62865	57.48	962.8072876295
2	62866	57.49	962.9461766293
2	62867	57.5	963.0850656291
2	62870	57.51	963.22395462889
2	62871	57.52	963.36284362869
2	62890	57.53	963.50173262849
2	62891	57.54	963.64062162829
2	62892	57.55	963.77951062809
2	62911	57.56	963.91839962789
2	62912	57.57	964.05728862769
2	62913	57.58	964.19617762749
2	62914	57.59	964.33506662729
2	62915	57.6	964.4739556271
2	62918	57.61	964.6128446269
2	62919	57.62	964.7517336267
2	62938	57.63	964.8906226265
2	62939	57.64	965.0295116263
2	62940	57.65	965.16840062611
2	62959	57.66	965.30728962591
2	62960	57.67	965.44617862571
2	62961	57.68	965.58506762552
2	62962	57.69	965.72395662532
2	62963	57.7	965.86284562513
2	62966	57.71	966.00173462493
2	62967	57.72	966.14062362474
2	62986	57.73	966.27951262454
2	62987	57.74	966.41840162435
2	62988	57.75	966.55729062415
2	63007	57.76	966.69617962396
2	63008	57.77	966.83506862377
2	63009	57.78	966.97395762357
2	63010	57.79	967.11284662338
2	63011	57.8	967.25173562319
2	63014	57.81	967.39062462299
2	63015	57.82	967.5295136228
2	63034	57.83	967.66840262261
2	63035	57.84	967.80729162242
2	63036	57.85	967.94618062223
2	63055	57.86	968.08506962204
2	63056	57.87	968.22395862185
2	63057	57.88	968.36284762166
2	63058	57.89	968.50173662147
2	63059	57.9	968.64062562128
2	63062	57.91	968.77951462109
2	63063	57.92	968.9184036209
2	63082	57.93	969.05729262071
2	63083	57.94	969.19618162052
2	63084	57.95	969.33507062033
2	63103	57.96	969.47395962015
2	63104	57.97	969.61284861996
2	63105	57.98	969.75173761977
2	63106	57.99	969.89062661958
2	63109	58	970.0295156194
2	63112	58.01	970.16840461921
2	63113	58.02	970.30729361903
2	63132	58.03	970.44618261884
2	63133	58.04	970.58507161865
2	63134	58.05	970.72396061847
2	63153	58.06	970.86284961828
2	63154	58.07	971.0017386181
2	63155	58.08	971.14062761791
2	63156	58.09	971.27951661773
2	63157	58.1	971.41840561755
2	63160	58.11	971.55729461736
2	63161	58.12	971.69618361718
2	63180	58.13	971.835072617
2	63181	58.14	971.97396161681
2	63182	58.15	972.11285061663
2	63201	58.16	972.25173961645
2	63202	58.17	972.39062861627
2	63203	58.18	972.52951761609
2	63204	58.19	972.66840661591
2	63205	58.2	972.80729561573
2	63208	58.21	972.94618461554
2	63209	58.22	973.08507361536
2	63228	58.23	973.22396261518
2	63229	58.24	973.362851615
2	63230	58.25	973.50174061482
2	63249	58.26	973.64062961465
2	63250	58.27	973.77951861447
2	63251	58.28	973.91840761429
2	63252	58.29	974.05729661411
2	63253	58.3	974.19618561393
2	63256	58.31	974.33507461375
2	63257	58.32	974.47396361358
2	63276	58.33	974.6128526134
2	63277	58.34	974.75174161322
2	63278	58.35	974.89063061304
2	63297	58.36	975.02951961287
2	63298	58.37	975.16840861269
2	63299	58.38	975.30729761252
2	63300	58.39	975.44618661234
2	63301	58.4	975.58507561217
2	63304	58.41	975.72396461199
2	63305	58.42	975.86285361182
2	63324	58.43	976.00174261164
2	63325	58.44	976.14063161147
2	63326	58.45	976.27952061129
2	63345	58.46	976.41840961112
2	63346	58.47	976.55729861095
2	63347	58.48	976.69618761077
2	63348	58.49	976.8350766106
2	63349	58.5	976.97396561043
2	63352	58.51	977.11285461025
2	63353	58.52	977.25174361008
2	63372	58.53	977.39063260991
2	63373	58.54	977.52952160974
2	63374	58.55	977.66841060957
2	63393	58.56	977.8072996094
2	63394	58.57	977.94618860923
2	63395	58.58	978.08507760906
2	63396	58.59	978.22396660889
2	63397	58.6	978.36285560872
2	63400	58.61	978.50174460855
2	63401	58.62	978.64063360838
2	63420	58.63	978.77952260821
2	63421	58.64	978.91841160804
2	63422	58.65	979.05730060787
2	63441	58.66	979.1961896077
2	63442	58.67	979.33507860753
2	63443	58.68	979.47396760736
2	63444	58.69	979.6128566072
2	63445	58.7	979.75174560703
2	63448	58.71	979.89063460686
2	63449	58.72	980.0295236067
2	63468	58.73	980.16841260653
2	63469	58.74	980.30730160636
2	63470	58.75	980.4461906062
2	63489	58.76	980.58507960603
2	63490	58.77	980.72396860587
2	63491	58.78	980.8628576057
2	63492	58.79	981.00174660554
2	63493	58.8	981.14063560537
2	63496	58.81	981.27952460521
2	63497	58.82	981.41841360504
2	63516	58.83	981.55730260488
2	63517	58.84	981.69619160471
2	63518	58.85	981.83508060455
2	63537	58.86	981.97396960439
2	63538	58.87	982.11285860422
2	63539	58.88	982.25174760406
2	63540	58.89	982.3906366039
2	63541	58.9	982.52952560374
2	63544	58.91	982.66841460358
2	63545	58.92	982.80730360341
2	63564	58.93	982.94619260325
2	63565	58.94	983.08508160309
2	63566	58.95	983.22397060293
2	63585	58.96	983.36285960277
2	63586	58.97	983.50174860261
2	63587	58.98	983.64063760245
2	63588	58.99	983.77952660229
2	63591	59	983.91841560213
2	63594	59.01	984.05730460197
2	63595	59.02	984.19619360181
2	63614	59.03	984.33508260165
2	63615	59.04	984.47397160149
2	63616	59.05	984.61286060133
2	63635	59.06	984.75174960118
2	63636	59.07	984.89063860102
2	63637	59.08	985.02952760086
2	63638	59.09	985.1684166007
2	63639	59.1	985.30730560055
2	63642	59.11	985.44619460039
2	63643	59.12	985.58508360023
2	63662	59.13	985.72397260008
2	63663	59.14	985.86286159992
2	63664	59.15	986.00175059976
2	63683	59.16	986.14063959961
2	63684	59.17	986.27952859945
2	63685	59.18	986.4184175993
2	63686	59.19	986.55730659914
2	63687	59.2	986.69619559899
2	63690	59.21	986.83508459883
2	63691	59.22	986.97397359868
2	63710	59.23	987.11286259852
2	63711	59.24	987.25175159837
2	63712	59.25	987.39064059822
2	63731	59.26	987.52952959806
2	63732	59.27	987.66841859791
2	63733	59.28	987.80730759776
2	63734	59.29	987.94619659761
2	63735	59.3	988.08508559745
2	63738	59.31	988.2239745973
2	63739	59.32	988.36286359715
2	63758	59.33	988.501752597
2	63759	59.34	988.64064159685
2	63760	59.35	988.77953059669
2	63779	59.36	988.91841959654
2	63780	59.37	989.05730859639
2	63781	59.38	989.19619759624
2	63782	59.39	989.33508659609
2	63783	59.4	989.47397559594
2	63786	59.41	989.61286459579
2	63787	59.42	989.75175359564
2	63806	59.43	989.89064259549
2	63807	59.44	990.02953159534
2	63808	59.45	990.1684205952
2	63827	59.46	990.30730959505
2	63828	59.47	990.4461985949
2	63829	59.48	990.58508759475
2	63830	59.49	990.7239765946
2	63831	59.5	990.86286559446
2	63834	59.51	991.00175459431
2	63835	59.52	991.14064359416
2	63854	59.53	991.27953259401
2	63855	59.54	991.41842159387
2	63856	59.55	991.55731059372
2	63875	59.56	991.69619959357
2	63876	59.57	991.83508859343
2	63877	59.58	991.97397759328
2	63878	59.59	992.11286659314
2	63879	59.6	992.25175559299
2	63882	59.61	992.39064459285
2	63883	59.62	992.5295335927
2	63902	59.63	992.66842259256
2	63903	59.64	992.80731159241
2	63904	59.65	992.94620059227
2	63923	59.66	993.08508959212
2	63924	59.67	993.22397859198
2	63925	59.68	993.36286759183
2	63926	59.69	993.50175659169
2	63927	59.7	993.64064559155
2	63930	59.71	993.77953459141
2	63931	59.72	993.91842359126
2	63950	59.73	994.05731259112
2	63951	59.74	994.19620159098
2	63952	59.75	994.33509059084
2	63971	59.76	994.47397959069
2	63972	59.77	994.61286859055
2	63973	59.78	994.75175759041
2	63974	59.79	994.89064659027
2	63975	59.8	995.02953559013
2	63978	59.81	995.16842458999
2	63979	59.82	995.30731358985
2	63998	59.83	995.44620258971
2	63999	59.84	995.58509158957
2	64000	59.85	995.72398058943
2	64019	59.86	995.86286958929
2	64020	59.87	996.00175858915
2	64021	59.88	996.14064758901
2	64022	59.89	996.27953658887
2	64023	59.9	996.41842558873
2	64026	59.91	996.55731458859
2	64027	59.92	996.69620358845
2	64046	59.93	996.83509258832
2	64047	59.94	996.97398158818
2	64048	59.95	997.11287058804
2	64067	59.96	997.2517595879
2	64068	59.97	997.39064858777
2	64069	59.98	997.52953758763
2	64070	59.99	997.66842658749
2	64073	60	997.80731558736
2	64076	60.01	997.94620458722
2	64077	60.02	998.08509358708
2	64096	60.03	998.22398258695
2	64097	60.04	998.36287158681
2	64098	60.05	998.50176058668
2	64117	60.06	998.64064958654
2	64118	60.07	998.77953858641
2	64119	60.08	998.91842758627
2	64120	60.09	999.05731658614
2	64121	60.1	999.196205586
2	64124	60.11	999.33509458587
2	64125	60.12	999.47398358573
2	64144	60.13	999.6128725856
2	64145	60.14	999.75176158547
2	64146	60.15	999.89065058533
2	64165	60.16	1000.0295395852
2	64166	60.17	1000.1684285851
2	64167	60.18	1000.3073175849
2	64168	60.19	1000.4462065848
2	64169	60.2	1000.5850955847
2	64172	60.21	1000.7239845845
2	64173	60.22	1000.8628735844
2	64192	60.23	1001.0017625843
2	64193	60.24	1001.1406515841
2	64194	60.25	1001.279540584
2	64213	60.26	1001.4184295839
2	64214	60.27	1001.5573185837
2	64215	60.28	1001.6962075836
2	64216	60.29	1001.8350965835
2	64217	60.3	1001.9739855834
2	64220	60.31	1002.1128745832
2	64221	60.32	1002.2517635831
2	64240	60.33	1002.390652583
2	64241	60.34	1002.5295415828
2	64242	60.35	1002.6684305827
2	64261	60.36	1002.8073195826
2	64262	60.37	1002.9462085824
2	64263	60.38	1003.0850975823
2	64264	60.39	1003.2239865822
2	64265	60.4	1003.3628755821
2	64268	60.41	1003.5017645819
2	64269	60.42	1003.6406535818
2	64288	60.43	1003.7795425817
2	64289	60.44	1003.9184315816
2	64290	60.45	1004.0573205814
2	64309	60.46	1004.1962095813
2	64310	60.47	1004.3350985812
2	64311	60.48	1004.473987581
2	64312	60.49	1004.6128765809
2	64313	60.5	1004.7517655808
2	64316	60.51	1004.8906545807
2	64317	60.52	1005.0295435805
2	64336	60.53	1005.1684325804
2	64337	60.54	1005.3073215803
2	64338	60.55	1005.4462105802
2	64357	60.56	1005.58509958
2	64358	60.57	1005.7239885799
2	64359	60.58	1005.8628775798
2	64360	60.59	1006.0017665797
2	64361	60.6	1006.1406555795
2	64364	60.61	1006.2795445794
2	64365	60.62	1006.4184335793
2	64384	60.63	1006.5573225792
2	64385	60.64	1006.696211579
2	64386	60.65	1006.8351005789
2	64405	60.66	1006.9739895788
2	64406	60.67	1007.1128785787
2	64407	60.68	1007.2517675786
2	64408	60.69	1007.3906565784
2	64409	60.7	1007.5295455783
2	64412	60.71	1007.6684345782
2	64413	60.72	1007.8073235781
2	64432	60.73	1007.9462125779
2	64433	60.74	1008.0851015778
2	64434	60.75	1008.2239905777
2	64453	60.76	1008.3628795776
2	64454	60.77	1008.5017685775
2	64455	60.78	1008.6406575773
2	64456	60.79	1008.7795465772
2	64457	60.8	1008.9184355771
2	64460	60.81	1009.057324577
2	64461	60.82	1009.1962135769
2	64480	60.83	1009.3351025767
2	64481	60.84	1009.4739915766
2	64482	60.85	1009.6128805765
2	64501	60.86	1009.7517695764
2	64502	60.87	1009.8906585763
2	64503	60.88	1010.0295475761
2	64504	60.89	1010.168436576
2	64505	60.9	1010.3073255759
2	64508	60.91	1010.4462145758
2	64509	60.92	1010.5851035757
2	64528	60.93	1010.7239925755
2	64529	60.94	1010.8628815754
2	64530	60.95	1011.0017705753
2	64549	60.96	1011.1406595752
2	64550	60.97	1011.2795485751
2	64551	60.98	1011.418437575
2	64552	60.99	1011.5573265748
2	64555	61	1011.6962155747
2	64558	61.01	1011.8351045746
2	64559	61.02	1011.9739935745
2	64578	61.03	1012.1128825744
2	64579	61.04	1012.2517715743
2	64580	61.05	1012.3906605741
2	64599	61.06	1012.529549574
2	64600	61.07	1012.6684385739
2	64601	61.08	1012.8073275738
2	64602	61.09	1012.9462165737
2	64603	61.1	1013.0851055736
2	64606	61.11	1013.2239945734
2	64607	61.12	1013.3628835733
2	64626	61.13	1013.5017725732
2	64627	61.14	1013.6406615731
2	64628	61.15	1013.779550573
2	64647	61.16	1013.9184395729
2	64648	61.17	1014.0573285728
2	64649	61.18	1014.1962175726
2	64650	61.19	1014.3351065725
2	64651	61.2	1014.4739955724
2	64654	61.21	1014.6128845723
2	64655	61.22	1014.7517735722
2	64674	61.23	1014.8906625721
2	64675	61.24	1015.029551572
2	64676	61.25	1015.1684405719
2	64695	61.26	1015.3073295717
2	64696	61.27	1015.4462185716
2	64697	61.28	1015.5851075715
2	64698	61.29	1015.7239965714
2	64699	61.3	1015.8628855713
2	64702	61.31	1016.0017745712
2	64703	61.32	1016.1406660221
2	64714	61.33	1016.2795647778
2	64715	61.34	1016.4184755972
2	64716	61.35	1016.5574031456
2	64717	61.36	1016.6963519969
2	64718	61.37	1016.8353266355
2	64719	61.38	1016.9743314577
2	64720	61.39	1017.1133707735
2	64721	61.4	1017.2524488086
2	64723	61.41	1017.3915697058
2	64724	61.42	1017.5307375265
2	64735	61.43	1017.6699562528
2	64736	61.44	1017.8092297883
2	64737	61.45	1017.9485619604
2	64738	61.46	1018.0879565212
2	64739	61.47	1018.2274171495
2	64740	61.48	1018.3669474518
2	64741	61.49	1018.5065509638
2	64742	61.5	1018.646231152
2	64744	61.51	1018.785991415
2	64745	61.52	1018.9258350845
2	64756	61.53	1019.0657654273
2	64757	61.54	1019.2057856456
2	64758	61.55	1019.3458988793
2	64759	61.56	1019.4861082064
2	64760	61.57	1019.6264166448
2	64761	61.58	1019.766827153
2	64762	61.59	1019.9073426316
2	64763	61.6	1020.0479659244
2	64765	61.61	1020.1886998192
2	64766	61.62	1020.3295470495
2	64777	61.63	1020.4705102949
2	64778	61.64	1020.6115921824
2	64779	61.65	1020.7527952879
2	64780	61.66	1020.8941221364
2	64781	61.67	1021.0355752036
2	64782	61.68	1021.1771569165
2	64783	61.69	1021.3188696547
2	64784	61.7	1021.4607157509
2	64786	61.71	1021.6026974923
2	64787	61.72	1021.7448171211
2	64798	61.73	1021.8870768356
2	64799	61.74	1022.029478791
2	64800	61.75	1022.1720251002
2	64801	61.76	1022.3147178347
2	64802	61.77	1022.4575590254
2	64803	61.78	1022.6005506634
2	64804	61.79	1022.7436947006
2	64805	61.8	1022.8869930508
2	64807	61.81	1023.0304475902
2	64808	61.82	1023.1740601582
2	64819	61.83	1023.3178325583
2	64820	61.84	1023.4617665583
2	64821	61.85	1023.6058638917
2	64822	61.86	1023.7501262577
2	64823	61.87	1023.8945553225
2	64824	61.88	1024.0391527193
2	64825	61.89	1024.1839200495
2	64826	61.9	1024.328858883
2	64828	61.91	1024.473970759
2	64829	61.92	1024.6192571865
2	64840	61.93	1024.7647196448

