version 3
run OvertakeNoGui-423-20241104-10:11:23-94063
attr configname OvertakeNoGui
attr datetime 20241104-10:11:23
attr datetimef 20241104-101123
attr experiment OvertakeNoGui
attr inifile omnetpp.ini
attr iterationvars "$leaderHeadway=1.2, $leaderSpeed=50, $controller=0, $pCSpeed=65, $pDeltaC=476"
attr iterationvarsd leaderHeadway=1.2/leaderSpeed=50/controller=0/pCSpeed=65/pDeltaC=476
attr iterationvarsf leaderHeadway=1.2,leaderSpeed=50,controller=0,pCSpeed=65,pDeltaC=476-
attr measurement "$leaderHeadway=1.2, $leaderSpeed=50, $controller=0, $pCSpeed=65, $pDeltaC=476"
attr network Overtake
attr processid 94063
attr repetition 0
attr replication #0
attr resultdir results
attr runnumber 423
attr seedset 0
itervar controller 0
itervar leaderHeadway 1.2
itervar leaderSpeed 50
itervar pCSpeed 65
itervar pDeltaC 476
config image-path ../../../../veins/images;../../images
config *.manager.command "\"sumo\""
config *.manager.ignoreGuiCommands true
config *.node[*].scenario_type "\"OvertakeScenario\""
config output-vector-file results/OvertakeNoGui_65_476_0.vec
config output-scalar-file results/OvertakeNoGui_65_476_0.sca
config cmdenv-express-mode false
config cmdenv-autoflush true
config cmdenv-status-frequency 10s
config num-rngs 6
config cmdenv-output-file log.txt
config cmdenv-redirect-output true
config network Overtake
config debug-on-errors true
config print-undisposed true
config *.playgroundSizeX 65000m
config *.playgroundSizeY 25000m
config *.playgroundSizeZ 50m
config sim-time-limit "360 s"
config *.annotations.draw false
config *.obstacles.debug false
config *.world.useTorus false
config *.world.use2D false
config *.manager.updateInterval 0.01s
config *.manager.host "\"localhost\""
config *.manager.moduleType "\"vtypeauto=org.car2x.plexe.PlatoonCar vtypehuman=0\""
config *.manager.moduleName "\"vtypeauto=node vtypehuman=0\""
config *.manager.moduleDisplayString "\"\""
config *.manager.autoShutdown true
config *.manager.margin 25
config *.manager.order -1
config *.connectionManager.sendDirect true
config *.connectionManager.maxInterfDist 2600m
config *.connectionManager.drawMaxIntfDist false
config *.**.nic.mac1609_4.useServiceChannel false
config *.**.nic.mac1609_4.txPower 100mW
config *.**.nic.mac1609_4.bitrate 6Mbps
config *.**.nic.mac1609_4.useAcks true
config *.**.nic.mac1609_4.ackErrorRate 0.0
config *.**.nic.mac1609_4.frameErrorRate 0.0
config *.**.nic.phy80211p.minPowerLevel -94dBm
config *.**.nic.phy80211p.maxTXPower 100mW
config *.**.nic.phy80211p.useNoiseFloor true
config *.**.nic.phy80211p.noiseFloor -95dBm
config *.**.nic.phy80211p.decider "xmldoc(\"config.xml\")"
config *.**.nic.phy80211p.analogueModels "xmldoc(\"config.xml\")"
config *.**.nic.phy80211p.usePropagationDelay true
config *.node[*].mobility.x 0
config *.node[*].mobility.y 0
config *.node[*].mobility.z 1.895
config *.shockwave[*].mobility.x 0
config *.shockwave[*].mobility.y 0
config *.shockwave[*].mobility.z 1.895
config seed-set 0
config **.seed 0
config *.node[*].prot.rng-0 2
config *.node[*].appl.rng-0 3
config *.node[*].scenario.rng-0 4
config *.manager.configFile "\"./sumocfg/overtake.sumo.cfg\""
config *.manager.launchConfig "xmldoc(\"./sumocfg/overtake.launchd.xml\")"
config *.node[*].helper_type "\"PositionHelper\""
config *.node[*].scenario.caccC1 0.5
config *.node[*].scenario.caccXi 1
config *.node[*].scenario.caccOmegaN "0.2 Hz"
config *.node[*].scenario.caccSpacing "5 m"
config *.node[*].scenario.engineTau "0.5 s"
config *.node[*].scenario.ploegH "0.5 s"
config *.node[*].scenario.ploegKp 0.2
config *.node[*].scenario.ploegKd 0.7
config *.node[*].scenario.useRealisticEngine false
config *.node[*].scenario.targetController "\"CACC\""
config *.node[*].scenario.accHeadway "0.1 s"
config *.node[*].scenario.leaderHeadway "1.2 s"
config *.node[*].scenario.leaderSpeed "50 kmph"
config *.node[*].appl_type "\"OvertakeApp\""
config *.node[*].appl.*.scalar-recording true
config *.node[*].appl.*.vector-recording true
config *.node[*].appl.overtakeManeuver "\"OvertakeManeuver\""
config *.node[*].protocol_type "\"SimplePlatooningBeaconing\""
config *.node[*].prot.*.scalar-recording true
config *.node[*].prot.*.vector-recording true
config *.node[*].prot.beaconingInterval "0.1 s"
config *.node[*].prot.priority 4
config *.node[*].prot.packetSize 200
config *.node[*].prot.useControllerAcceleration true
config **.traffic_type "\"OvertakeTrafficManager\""
config **.traffic.platoonInsertTime "0.1 s"
config **.traffic.platooningVType "\"vtypeauto\""
config **.numericController 0
config **.traffic.platoonInsertDistance 5m
config **.traffic.platoonInsertHeadway 0s
config **.traffic.platoonLeaderHeadway 1.2s
config **.traffic.platoonASpeed 50kmph
config **.traffic.platoonBSpeed 100kmph
config **.traffic.platoonCSpeed 65kmph
config **.traffic.platoonSizeA 2
config **.traffic.platoonSizeB 1
config **.traffic.platoonSizeC 1
config **.traffic.initialPositionDeltaA 150
config **.traffic.initialPositionDeltaB 50
config **.traffic.initialPositionDeltaC 476
config **.traffic.controller "\"CACC\""
config **.scalar-recording true
config **.vector-recording true

vector 0 Overtake.node[0].mobility posx ETV
vector 1 Overtake.node[0].mobility posy ETV
vector 2 Overtake.node[1].mobility posx ETV
vector 3 Overtake.node[1].mobility posy ETV
vector 4 Overtake.node[2].mobility posx ETV
vector 5 Overtake.node[2].mobility posy ETV
vector 6 Overtake.node[3].mobility posx ETV
vector 7 Overtake.node[3].mobility posy ETV
vector 8 Overtake.node[0].mobility speed ETV
vector 9 Overtake.node[1].mobility speed ETV
vector 10 Overtake.node[2].mobility speed ETV
vector 11 Overtake.node[3].mobility speed ETV
vector 12 Overtake.node[0].mobility acceleration ETV
vector 13 Overtake.node[0].mobility co2emission ETV
vector 14 Overtake.node[1].mobility acceleration ETV
vector 15 Overtake.node[1].mobility co2emission ETV
vector 16 Overtake.node[2].mobility acceleration ETV
vector 17 Overtake.node[2].mobility co2emission ETV
vector 18 Overtake.node[3].mobility acceleration ETV
vector 19 Overtake.node[3].mobility co2emission ETV
vector 20 Overtake.node[0].appl distance ETV
vector 21 Overtake.node[0].appl relativeSpeed ETV
vector 22 Overtake.node[0].appl nodeId ETV
vector 23 Overtake.node[0].appl acceleration ETV
vector 24 Overtake.node[0].appl controllerAcceleration ETV
vector 25 Overtake.node[0].appl speed ETV
vector 26 Overtake.node[0].appl posx ETV
vector 27 Overtake.node[0].appl posy ETV
vector 28 Overtake.node[1].appl distance ETV
vector 29 Overtake.node[1].appl relativeSpeed ETV
vector 30 Overtake.node[1].appl nodeId ETV
vector 31 Overtake.node[1].appl acceleration ETV
vector 32 Overtake.node[1].appl controllerAcceleration ETV
vector 33 Overtake.node[1].appl speed ETV
vector 34 Overtake.node[1].appl posx ETV
vector 35 Overtake.node[1].appl posy ETV
vector 36 Overtake.node[2].appl distance ETV
vector 37 Overtake.node[2].appl relativeSpeed ETV
vector 38 Overtake.node[2].appl nodeId ETV
vector 39 Overtake.node[2].appl acceleration ETV
vector 40 Overtake.node[2].appl controllerAcceleration ETV
vector 41 Overtake.node[2].appl speed ETV
vector 42 Overtake.node[2].appl posx ETV
vector 43 Overtake.node[2].appl posy ETV
vector 44 Overtake.node[3].appl distance ETV
vector 45 Overtake.node[3].appl relativeSpeed ETV
vector 46 Overtake.node[3].appl nodeId ETV
vector 47 Overtake.node[3].appl acceleration ETV
vector 48 Overtake.node[3].appl controllerAcceleration ETV
vector 49 Overtake.node[3].appl speed ETV
vector 50 Overtake.node[3].appl posx ETV
vector 51 Overtake.node[3].appl posy ETV
vector 52 Overtake.node[1].prot leaderDelay ETV
vector 53 Overtake.node[1].prot leaderDelayId ETV
vector 54 Overtake.node[1].prot frontDelay ETV
vector 55 Overtake.node[1].prot frontDelayId ETV
vector 56 Overtake.node[0].prot nodeId ETV
vector 57 Overtake.node[0].prot busyTime ETV
vector 58 Overtake.node[0].prot collisions ETV
vector 59 Overtake.node[1].prot nodeId ETV
vector 60 Overtake.node[1].prot busyTime ETV
vector 61 Overtake.node[1].prot collisions ETV
vector 62 Overtake.node[2].prot nodeId ETV
vector 63 Overtake.node[2].prot busyTime ETV
vector 64 Overtake.node[2].prot collisions ETV
vector 65 Overtake.node[3].prot nodeId ETV
vector 66 Overtake.node[3].prot busyTime ETV
vector 67 Overtake.node[3].prot collisions ETV
48	26	0.21	-0.00437036
48	176	0.31	-0.00426837
48	326	0.41	-0.00410815
48	476	0.51	-0.00390303
48	626	0.61	-0.00366476
48	776	0.71	-0.00340356
48	926	0.81	-0.00312825
48	1076	0.91	-0.00284628
48	1230	1.01	-0.00256392
48	1381	1.11	-0.0022863
48	1532	1.21	-0.00201755
48	1683	1.31	-0.00176089
48	2046	1.41	-0.00151876
48	2196	1.51	-0.00129289
48	2346	1.61	-0.00108441
48	2496	1.71	-0.00089393
48	2646	1.81	-0.000721638
48	2796	1.91	-0.000567355
48	2950	2.01	-0.000430614
48	3100	2.11	-0.000310715
48	3250	2.21	-0.000206783
48	3400	2.31	-0.000117814
48	3763	2.41	-4.27149e-05
48	3914	2.51	1.96584e-05
48	4064	2.61	7.04736e-05
48	4214	2.71	0.000110896
48	4364	2.81	0.000142067
48	4514	2.91	0.00016509
48	4668	3.01	0.000181016
48	4818	3.11	0.000190834
48	4968	3.21	0.000195466
48	5118	3.31	0.00019576
48	5269	3.41	0.000192489
48	5676	3.51	0.000186354
48	5826	3.61	0.000177979
48	5976	3.71	0.000167916
48	6126	3.81	0.000156649
48	6276	3.91	0.000144597
48	6430	4.01	0.000132116
48	6580	4.11	0.000119508
48	6730	4.21	0.000107021
48	6880	4.31	9.48587e-05
48	7030	4.41	8.31796e-05
48	7393	4.51	7.21068e-05
48	7544	4.61	6.17299e-05
48	7694	4.71	5.21101e-05
48	7844	4.81	4.32839e-05
48	7994	4.91	3.52669e-05
48	8148	5.01	2.80577e-05
48	8298	5.11	2.16404e-05
48	8448	5.21	1.59878e-05
48	8598	5.31	1.1064e-05
48	8748	5.41	6.82631e-06
48	8899	5.51	3.22748e-06
48	9262	5.61	2.17307e-07
48	9412	5.71	-2.25598e-06
48	9562	5.81	-4.24448e-06
48	9712	5.91	-5.79961e-06
48	9866	6.01	-6.97134e-06
48	10016	6.11	-7.80753e-06
48	10166	6.21	-8.35346e-06
48	10316	6.31	-8.65149e-06
48	10466	6.41	-8.7408e-06
48	10616	6.51	-8.6573e-06
48	11023	6.61	-8.43352e-06
48	11174	6.71	-8.09868e-06
48	11324	6.81	-7.67874e-06
48	11474	6.91	-7.19651e-06
48	11628	7.01	-6.67185e-06
48	11778	7.11	-6.12177e-06
48	11928	7.21	-5.56072e-06
48	12078	7.31	-5.00073e-06
48	12228	7.41	-4.45164e-06
48	12378	7.51	-3.92136e-06
48	12529	7.61	-3.41601e-06
48	12892	7.71	-2.94018e-06
48	13042	7.81	-2.4971e-06
48	13192	7.91	-2.08883e-06
48	13346	8.01	-1.71644e-06
48	13496	8.11	-1.38016e-06
48	13646	8.21	-1.07955e-06
48	13796	8.31	-8.13576e-07
48	13946	8.41	-5.80794e-07
48	14096	8.51	-3.79414e-07
48	14246	8.61	-2.07408e-07
48	14609	8.71	-6.25825e-08
48	14760	8.81	5.73472e-08
48	14910	8.91	1.54703e-07
48	15064	9.01	2.31794e-07
48	15214	9.11	2.90877e-07
48	15364	9.21	3.3413e-07
48	15514	9.31	3.63618e-07
48	15664	9.41	3.81288e-07
48	15814	9.51	3.88944e-07
48	15964	9.61	3.88249e-07
48	16115	9.71	3.80715e-07
48	16522	9.81	3.67706e-07
48	16672	9.91	3.50439e-07
48	16826	10.01	3.29989e-07
48	16976	10.11	3.07294e-07
48	17126	10.21	2.83164e-07
48	17276	10.31	2.58291e-07
48	17426	10.41	2.33253e-07
48	17576	10.51	2.0853e-07
48	17726	10.61	1.84509e-07
48	17876	10.71	1.61493e-07
48	18239	10.81	1.39716e-07
48	18390	10.91	1.19345e-07
48	18544	11.01	1.00493e-07
48	18694	11.11	8.32259e-08
48	18844	11.21	6.75676e-08
48	18994	11.31	5.35106e-08
48	19144	11.41	4.10193e-08
48	19294	11.51	3.00361e-08
48	19444	11.61	2.04874e-08
48	19594	11.71	1.22867e-08
48	19745	11.81	5.33902e-09
48	20108	11.91	-4.56524e-10
48	20262	12.01	-5.20259e-09
48	20412	12.11	-9.00258e-09
48	20562	12.21	-1.19588e-08
48	20712	12.31	-1.41693e-08
48	20862	12.41	-1.57286e-08
48	21012	12.51	-1.67255e-08
48	21162	12.61	-1.72435e-08
48	21312	12.71	-1.73589e-08
48	21462	12.81	-1.71426e-08
48	21845	12.91	-1.66573e-08
48	22000	13.01	-1.59606e-08
48	22150	13.11	-1.51029e-08
48	22300	13.21	-1.41284e-08
48	22450	13.31	-1.30754e-08
48	22600	13.41	-1.19773e-08
48	22750	13.51	-1.08614e-08
48	22900	13.61	-9.75113e-09
48	23050	13.71	-8.66542e-09
48	23200	13.81	-7.61951e-09
48	23351	13.91	-6.62475e-09
48	23738	14.01	-5.69003e-09
48	23888	14.11	-4.82103e-09
48	24038	14.21	-4.02167e-09
48	24188	14.31	-3.29372e-09
48	24338	14.41	-2.63753e-09
48	24488	14.51	-2.05205e-09
48	24638	14.61	-1.53477e-09
48	24788	14.71	-1.08287e-09
48	24938	14.81	-6.92779e-10
48	25088	14.91	-3.606e-10
48	25242	15.01	-8.13571e-11
48	25392	15.11	1.49214e-10
48	25542	15.21	3.35731e-10
48	25692	15.31	4.82459e-10
48	25842	15.41	5.94369e-10
48	25992	15.51	6.75726e-10
48	26142	15.61	7.30083e-10
48	26292	15.71	7.61702e-10
48	26442	15.81	7.73781e-10
48	26592	15.91	7.70228e-10
48	26746	16.01	7.53175e-10
48	26896	16.11	7.25819e-10
48	27046	16.21	6.90292e-10
48	27196	16.31	6.48726e-10
48	27346	16.41	6.03251e-10
48	27496	16.51	5.54934e-10
48	27646	16.61	5.05196e-10
48	27796	16.71	4.55458e-10
48	27946	16.81	4.0643e-10
48	28096	16.91	3.58824e-10
48	28250	17.01	3.13349e-10
48	28400	17.11	2.70717e-10
48	28550	17.21	2.30571e-10
48	28700	17.31	1.93623e-10
48	28850	17.41	1.59872e-10
48	29000	17.51	1.29319e-10
48	29150	17.61	1.01963e-10
48	29300	17.71	7.78044e-11
48	29450	17.81	5.64881e-11
48	29600	17.91	3.8014e-11
48	29754	18.01	2.20268e-11
48	29904	18.11	8.88178e-12
48	30054	18.21	-2.4869e-12
48	30204	18.31	-1.13687e-11
48	30354	18.41	-1.88294e-11
48	30504	18.51	-2.45137e-11
48	30654	18.61	-2.8777e-11
48	30804	18.71	-3.16192e-11
48	30954	18.81	-3.33955e-11
48	31104	18.91	-3.44613e-11
48	31258	19.01	-3.44613e-11
48	31408	19.11	-3.41061e-11
48	31558	19.21	-3.30402e-11
48	31708	19.31	-3.16192e-11
48	31858	19.41	-3.01981e-11
48	32008	19.51	-2.80664e-11
48	32158	19.61	-2.59348e-11
48	32308	19.71	-2.41585e-11
48	32458	19.81	-2.20268e-11
48	32608	19.91	-1.98952e-11
48	32762	20.01	-1.77636e-11
48	32912	20.11	-1.59872e-11
48	33062	20.21	-1.38556e-11
48	33212	20.31	-1.1724e-11
48	33362	20.41	-9.9476e-12
48	33512	20.51	-8.17124e-12
48	33662	20.61	-6.39488e-12
48	33812	20.71	-4.9738e-12
48	33962	20.81	-3.55271e-12
48	34112	20.91	-2.4869e-12
48	34266	21.01	-1.42109e-12
48	34416	21.11	-3.55271e-13
48	34566	21.21	3.55271e-13
48	34716	21.31	1.42109e-12
48	34866	21.41	2.13163e-12
48	35016	21.51	2.84217e-12
48	35166	21.61	3.19744e-12
48	35316	21.71	3.90799e-12
48	35466	21.81	4.26326e-12
48	35616	21.91	4.61853e-12
48	35770	22.01	4.9738e-12
48	35920	22.11	5.32907e-12
48	36070	22.21	5.68434e-12
48	36220	22.31	6.03961e-12
48	36370	22.41	6.39488e-12
48	36520	22.51	6.75016e-12
48	36670	22.61	6.75016e-12
48	36820	22.71	7.10543e-12
48	36970	22.81	7.10543e-12
48	37120	22.91	7.4607e-12
48	37274	23.01	7.4607e-12
48	37424	23.11	7.81597e-12
48	37574	23.21	7.81597e-12
48	37724	23.31	7.81597e-12
48	37874	23.41	7.81597e-12
48	38024	23.51	8.17124e-12
48	38174	23.61	8.17124e-12
48	38324	23.71	8.17124e-12
48	38474	23.81	8.17124e-12
48	38624	23.91	8.17124e-12
48	38778	24.01	8.52651e-12
48	38928	24.11	8.52651e-12
48	39078	24.21	8.52651e-12
48	39228	24.31	8.52651e-12
48	39378	24.41	8.52651e-12
48	39528	24.51	8.52651e-12
48	39678	24.61	8.52651e-12
48	39828	24.71	8.52651e-12
48	39978	24.81	8.52651e-12
48	40128	24.91	8.52651e-12
48	40282	25.01	8.88178e-12
48	40432	25.11	8.88178e-12
48	40582	25.21	8.88178e-12
48	40732	25.31	8.88178e-12
48	40882	25.41	8.88178e-12
48	41032	25.51	8.88178e-12
48	41182	25.61	8.88178e-12
48	41333	25.71	8.88178e-12
48	41483	25.81	8.88178e-12
48	41633	25.91	8.88178e-12
48	41787	26.01	8.88178e-12
48	41937	26.11	8.88178e-12
48	42087	26.21	8.88178e-12
48	42237	26.31	8.88178e-12
48	42387	26.41	8.88178e-12
48	42537	26.51	8.88178e-12
48	42687	26.61	8.88178e-12
48	42837	26.71	8.88178e-12
48	42987	26.81	8.88178e-12
48	43137	26.91	8.88178e-12
48	43291	27.01	8.88178e-12
48	43441	27.11	8.88178e-12
48	43591	27.21	8.88178e-12
48	43741	27.31	8.88178e-12
48	43891	27.41	8.88178e-12
48	44041	27.51	8.88178e-12
48	44191	27.61	8.88178e-12
48	44341	27.71	8.88178e-12
48	44491	27.81	8.88178e-12
48	44641	27.91	8.88178e-12
48	44795	28.01	8.88178e-12
48	44945	28.11	8.88178e-12
48	45095	28.21	8.88178e-12
48	45245	28.31	8.88178e-12
48	45395	28.41	8.88178e-12
48	45545	28.51	8.88178e-12
48	45695	28.61	8.88178e-12
48	45845	28.71	8.88178e-12
48	45995	28.81	8.88178e-12
48	46145	28.91	8.88178e-12
48	46299	29.01	8.88178e-12
48	46449	29.11	8.88178e-12
47	26	0.21	-0.000716383
47	176	0.31	-0.00136341
47	326	0.41	-0.00186974
47	476	0.51	-0.00225157
47	626	0.61	-0.00252443
47	776	0.71	-0.00270298
47	926	0.81	-0.00280098
47	1076	0.91	-0.00283113
47	1230	1.01	-0.00280509
47	1381	1.11	-0.00273342
47	1532	1.21	-0.00262559
47	1683	1.31	-0.00249005
47	2046	1.41	-0.00233419
47	2196	1.51	-0.00216447
47	2346	1.61	-0.00198642
47	2496	1.71	-0.00180472
47	2646	1.81	-0.0016233
47	2796	1.91	-0.00144536
47	2950	2.01	-0.00127346
47	3100	2.11	-0.0011096
47	3250	2.21	-0.000955278
47	3400	2.31	-0.000811546
47	3763	2.41	-0.00067908
47	3914	2.51	-0.000558232
47	4064	2.61	-0.000449082
47	4214	2.71	-0.000351487
47	4364	2.81	-0.00026512
47	4514	2.91	-0.000189514
47	4668	3.01	-0.000124092
47	4818	3.11	-6.81972e-05
47	4968	3.21	-2.11209e-05
47	5118	3.31	1.78769e-05
47	5269	3.41	4.9548e-05
47	5676	3.51	7.46407e-05
47	5826	3.61	9.38867e-05
47	5976	3.71	0.000107991
47	6126	3.81	0.000117625
47	6276	3.91	0.000123418
47	6430	4.01	0.000125957
47	6580	4.11	0.000125781
47	6730	4.21	0.00012338
47	6880	4.31	0.000119198
47	7030	4.41	0.000113629
47	7393	4.51	0.000107022
47	7544	4.61	9.96832e-05
47	7694	4.71	9.18747e-05
47	7844	4.81	8.38211e-05
47	7994	4.91	7.57109e-05
47	8148	5.01	6.76999e-05
47	8298	5.11	5.99137e-05
47	8448	5.21	5.24518e-05
47	8598	5.31	4.53896e-05
47	8748	5.41	3.87821e-05
47	8899	5.51	3.2666e-05
47	9262	5.61	2.70628e-05
47	9412	5.71	2.19809e-05
47	9562	5.81	1.74176e-05
47	9712	5.91	1.33618e-05
47	9866	6.01	9.79494e-06
47	10016	6.11	6.6932e-06
47	10166	6.21	4.02864e-06
47	10316	6.31	1.77051e-06
47	10466	6.41	-1.13691e-07
47	10616	6.51	-1.65736e-06
47	11023	6.61	-2.89397e-06
47	11174	6.71	-3.85652e-06
47	11324	6.81	-4.57698e-06
47	11474	6.91	-5.08591e-06
47	11628	7.01	-5.41219e-06
47	11778	7.11	-5.58279e-06
47	11928	7.21	-5.6226e-06
47	12078	7.31	-5.55442e-06
47	12228	7.41	-5.39886e-06
47	12378	7.51	-5.17441e-06
47	12529	7.61	-4.89748e-06
47	12892	7.71	-4.58246e-06
47	13042	7.81	-4.24184e-06
47	13192	7.91	-3.88634e-06
47	13346	8.01	-3.52499e-06
47	13496	8.11	-3.16534e-06
47	13646	8.21	-2.81353e-06
47	13796	8.31	-2.47446e-06
47	13946	8.41	-2.15192e-06
47	14096	8.51	-1.84873e-06
47	14246	8.61	-1.56685e-06
47	14609	8.71	-1.30751e-06
47	14760	8.81	-1.0713e-06
47	14910	8.91	-8.58321e-07
47	15064	9.01	-6.68206e-07
47	15214	9.11	-5.0026e-07
47	15364	9.21	-3.53514e-07
47	15514	9.31	-2.2679e-07
47	15664	9.41	-1.18765e-07
47	15814	9.51	-2.80163e-08
47	15964	9.61	4.6931e-08
47	16115	9.71	1.07573e-07
47	16522	9.81	1.55391e-07
47	16672	9.91	1.91831e-07
47	16826	10.01	2.18284e-07
47	16976	10.11	2.3607e-07
47	17126	10.21	2.46427e-07
47	17276	10.31	2.50502e-07
47	17426	10.41	2.49353e-07
47	17576	10.51	2.43938e-07
47	17726	10.61	2.3512e-07
47	17876	10.71	2.23669e-07
47	18239	10.81	2.10264e-07
47	18390	10.91	1.95496e-07
47	18544	11.01	1.79874e-07
47	18694	11.11	1.63833e-07
47	18844	11.21	1.47736e-07
47	18994	11.31	1.3188e-07
47	19144	11.41	1.16508e-07
47	19294	11.51	1.01807e-07
47	19444	11.61	8.79222e-08
47	19594	11.71	7.49541e-08
47	19745	11.81	6.29711e-08
47	20108	11.91	5.20114e-08
47	20262	12.01	4.20883e-08
47	20412	12.11	3.3193e-08
47	20562	12.21	2.53003e-08
47	20712	12.31	1.83718e-08
47	20862	12.41	1.23581e-08
47	21012	12.51	7.20348e-09
47	21162	12.61	2.84537e-09
47	21312	12.71	-7.80886e-10
47	21462	12.81	-3.74136e-09
47	21845	12.91	-6.10285e-09
47	22000	13.01	-7.93072e-09
47	22150	13.11	-9.28821e-09
47	22300	13.21	-1.0235e-08
47	22450	13.31	-1.08283e-08
47	22600	13.41	-1.11211e-08
47	22750	13.51	-1.11612e-08
47	22900	13.61	-1.09946e-08
47	23050	13.71	-1.06599e-08
47	23200	13.81	-1.01945e-08
47	23351	13.91	-9.62999e-09
47	23738	14.01	-8.99405e-09
47	23888	14.11	-8.31086e-09
47	24038	14.21	-7.60103e-09
47	24188	14.31	-6.88338e-09
47	24338	14.41	-6.17071e-09
47	24488	14.51	-5.47544e-09
47	24638	14.61	-4.80682e-09
47	24788	14.71	-4.17266e-09
47	24938	14.81	-3.57687e-09
47	25088	14.91	-3.02443e-09
47	25242	15.01	-2.51674e-09
47	25392	15.11	-2.05489e-09
47	25542	15.21	-1.63958e-09
47	25692	15.31	-1.26903e-09
47	25842	15.41	-9.42535e-10
47	25992	15.51	-6.57963e-10
47	26142	15.61	-4.1247e-10
47	26292	15.71	-2.04636e-10
47	26442	15.81	-2.91323e-11
47	26592	15.91	1.14753e-10
47	26746	16.01	2.30926e-10
47	26896	16.11	3.22231e-10
47	27046	16.21	3.91154e-10
47	27196	16.31	4.40892e-10
47	27346	16.41	4.73577e-10
47	27496	16.51	4.92051e-10
47	27646	16.61	4.98446e-10
47	27796	16.71	4.94893e-10
47	27946	16.81	4.82814e-10
47	28096	16.91	4.6434e-10
47	28250	17.01	4.40892e-10
47	28400	17.11	4.13536e-10
47	28550	17.21	3.83693e-10
47	28700	17.31	3.51719e-10
47	28850	17.41	3.19744e-10
47	29000	17.51	2.8777e-10
47	29150	17.61	2.55795e-10
47	29300	17.71	2.25953e-10
47	29450	17.81	1.97531e-10
47	29600	17.91	1.6982e-10
47	29754	18.01	1.44951e-10
47	29904	18.11	1.21503e-10
47	30054	18.21	1.00187e-10
47	30204	18.31	8.10019e-11
47	30354	18.41	6.32383e-11
47	30504	18.51	4.86722e-11
47	30654	18.61	3.44613e-11
47	30804	18.71	2.34479e-11
47	30954	18.81	1.27898e-11
47	31104	18.91	4.9738e-12
47	31258	19.01	-2.13163e-12
47	31408	19.11	-8.17124e-12
47	31558	19.21	-1.1724e-11
47	31708	19.31	-1.52767e-11
47	31858	19.41	-1.88294e-11
47	32008	19.51	-2.02505e-11
47	32158	19.61	-2.02505e-11
47	32308	19.71	-2.02505e-11
47	32458	19.81	-2.02505e-11
47	32608	19.91	-2.02505e-11
47	32762	20.01	-2.02505e-11
47	32912	20.11	-2.02505e-11
47	33062	20.21	-2.02505e-11
47	33212	20.31	-2.02505e-11
47	33362	20.41	-1.88294e-11
47	33512	20.51	-1.7053e-11
47	33662	20.61	-1.52767e-11
47	33812	20.71	-1.38556e-11
47	33962	20.81	-1.24345e-11
47	34112	20.91	-1.13687e-11
47	34266	21.01	-1.03029e-11
47	34416	21.11	-9.23706e-12
47	34566	21.21	-8.52651e-12
47	34716	21.31	-7.4607e-12
47	34866	21.41	-6.75016e-12
47	35016	21.51	-6.03961e-12
47	35166	21.61	-5.68434e-12
47	35316	21.71	-4.9738e-12
47	35466	21.81	-4.61853e-12
47	35616	21.91	-4.26326e-12
47	35770	22.01	-3.90799e-12
47	35920	22.11	-3.55271e-12
47	36070	22.21	-3.19744e-12
47	36220	22.31	-2.84217e-12
47	36370	22.41	-2.4869e-12
47	36520	22.51	-2.13163e-12
47	36670	22.61	-2.13163e-12
47	36820	22.71	-1.77636e-12
47	36970	22.81	-1.77636e-12
47	37120	22.91	-1.42109e-12
47	37274	23.01	-1.42109e-12
47	37424	23.11	-1.06581e-12
47	37574	23.21	-1.06581e-12
47	37724	23.31	-1.06581e-12
47	37874	23.41	-1.06581e-12
47	38024	23.51	-7.10543e-13
47	38174	23.61	-7.10543e-13
47	38324	23.71	-7.10543e-13
47	38474	23.81	-7.10543e-13
47	38624	23.91	-7.10543e-13
47	38778	24.01	-3.55271e-13
47	38928	24.11	-3.55271e-13
47	39078	24.21	-3.55271e-13
47	39228	24.31	-3.55271e-13
47	39378	24.41	-3.55271e-13
47	39528	24.51	-3.55271e-13
47	39678	24.61	-3.55271e-13
47	39828	24.71	-3.55271e-13
47	39978	24.81	-3.55271e-13
47	40128	24.91	-3.55271e-13
47	40282	25.01	0
47	40432	25.11	0
47	40582	25.21	0
47	40732	25.31	0
47	40882	25.41	0
47	41032	25.51	0
47	41182	25.61	0
47	41333	25.71	0
47	41483	25.81	0
47	41633	25.91	0
47	41787	26.01	0
47	41937	26.11	0
47	42087	26.21	0
47	42237	26.31	0
47	42387	26.41	0
47	42537	26.51	0
47	42687	26.61	0
47	42837	26.71	0
47	42987	26.81	0
47	43137	26.91	0
47	43291	27.01	0
47	43441	27.11	0
47	43591	27.21	0
47	43741	27.31	0
47	43891	27.41	0
47	44041	27.51	0
47	44191	27.61	0
47	44341	27.71	0
47	44491	27.81	0
47	44641	27.91	0
47	44795	28.01	0
47	44945	28.11	0
47	45095	28.21	0
47	45245	28.31	0
47	45395	28.41	0
47	45545	28.51	0
47	45695	28.61	0
47	45845	28.71	0
47	45995	28.81	0
47	46145	28.91	0
47	46299	29.01	0
47	46449	29.11	0
51	26	0.21	1.6
51	176	0.31	1.6
51	326	0.41	1.6
51	476	0.51	1.6
51	626	0.61	1.6
51	776	0.71	1.6
51	926	0.81	1.6
51	1076	0.91	1.6
51	1230	1.01	1.6
51	1381	1.11	1.6
51	1532	1.21	1.6
51	1683	1.31	1.6
51	2046	1.41	1.6
51	2196	1.51	1.6
51	2346	1.61	1.6
51	2496	1.71	1.6
51	2646	1.81	1.6
51	2796	1.91	1.6
51	2950	2.01	1.6
51	3100	2.11	1.6
51	3250	2.21	1.6
51	3400	2.31	1.6
51	3763	2.41	1.6
51	3914	2.51	1.6
51	4064	2.61	1.6
51	4214	2.71	1.6
51	4364	2.81	1.6
51	4514	2.91	1.6
51	4668	3.01	1.6
51	4818	3.11	1.6
51	4968	3.21	1.6
51	5118	3.31	1.6
51	5269	3.41	1.6
51	5676	3.51	1.6
51	5826	3.61	1.6
51	5976	3.71	1.6
51	6126	3.81	1.6
51	6276	3.91	1.6
51	6430	4.01	1.6
51	6580	4.11	1.6
51	6730	4.21	1.6
51	6880	4.31	1.6
51	7030	4.41	1.6
51	7393	4.51	1.6
51	7544	4.61	1.6
51	7694	4.71	1.6
51	7844	4.81	1.6
51	7994	4.91	1.6
51	8148	5.01	1.6
51	8298	5.11	1.6
51	8448	5.21	1.6
51	8598	5.31	1.6
51	8748	5.41	1.6
51	8899	5.51	1.6
51	9262	5.61	1.6
51	9412	5.71	1.6
51	9562	5.81	1.6
51	9712	5.91	1.6
51	9866	6.01	1.6
51	10016	6.11	1.6
51	10166	6.21	1.6
51	10316	6.31	1.6
51	10466	6.41	1.6
51	10616	6.51	1.6
51	11023	6.61	1.6
51	11174	6.71	1.6
51	11324	6.81	1.6
51	11474	6.91	1.6
51	11628	7.01	1.6
51	11778	7.11	1.6
51	11928	7.21	1.6
51	12078	7.31	1.6
51	12228	7.41	1.6
51	12378	7.51	1.6
51	12529	7.61	1.6
51	12892	7.71	1.6
51	13042	7.81	1.6
51	13192	7.91	1.6
51	13346	8.01	1.6
51	13496	8.11	1.6
51	13646	8.21	1.6
51	13796	8.31	1.6
51	13946	8.41	1.6
51	14096	8.51	1.6
51	14246	8.61	1.6
51	14609	8.71	1.6
51	14760	8.81	1.6
51	14910	8.91	1.6
51	15064	9.01	1.6
51	15214	9.11	1.6
51	15364	9.21	1.6
51	15514	9.31	1.6
51	15664	9.41	1.6
51	15814	9.51	1.6
51	15964	9.61	1.6
51	16115	9.71	1.6
51	16522	9.81	1.6
51	16672	9.91	1.6
51	16826	10.01	1.6
51	16976	10.11	1.6
51	17126	10.21	1.6
51	17276	10.31	1.6
51	17426	10.41	1.6
51	17576	10.51	1.6
51	17726	10.61	1.6
51	17876	10.71	1.6
51	18239	10.81	1.6
51	18390	10.91	1.6
51	18544	11.01	1.6
51	18694	11.11	1.6
51	18844	11.21	1.6
51	18994	11.31	1.6
51	19144	11.41	1.6
51	19294	11.51	1.6
51	19444	11.61	1.6
51	19594	11.71	1.6
51	19745	11.81	1.6
51	20108	11.91	1.6
51	20262	12.01	1.6
51	20412	12.11	1.6
51	20562	12.21	1.6
51	20712	12.31	1.6
51	20862	12.41	1.6
51	21012	12.51	1.6
51	21162	12.61	1.6
51	21312	12.71	1.6
51	21462	12.81	1.6
51	21845	12.91	1.6
51	22000	13.01	1.6
51	22150	13.11	1.6
51	22300	13.21	1.6
51	22450	13.31	1.6
51	22600	13.41	1.6
51	22750	13.51	1.6
51	22900	13.61	1.6
51	23050	13.71	1.6
51	23200	13.81	1.6
51	23351	13.91	1.6
51	23738	14.01	1.6
51	23888	14.11	1.6
51	24038	14.21	1.6
51	24188	14.31	1.6
51	24338	14.41	1.6
51	24488	14.51	1.6
51	24638	14.61	1.6
51	24788	14.71	1.6
51	24938	14.81	1.6
51	25088	14.91	1.6
51	25242	15.01	1.6
51	25392	15.11	1.6
51	25542	15.21	1.6
51	25692	15.31	1.6
51	25842	15.41	1.6
51	25992	15.51	1.6
51	26142	15.61	1.6
51	26292	15.71	1.6
51	26442	15.81	1.6
51	26592	15.91	1.6
51	26746	16.01	1.6
51	26896	16.11	1.6
51	27046	16.21	1.6
51	27196	16.31	1.6
51	27346	16.41	1.6
51	27496	16.51	1.6
51	27646	16.61	1.6
51	27796	16.71	1.6
51	27946	16.81	1.6
51	28096	16.91	1.6
51	28250	17.01	1.6
51	28400	17.11	1.6
51	28550	17.21	1.6
51	28700	17.31	1.6
51	28850	17.41	1.6
51	29000	17.51	1.6
51	29150	17.61	1.6
51	29300	17.71	1.6
51	29450	17.81	1.6
51	29600	17.91	1.6
51	29754	18.01	1.6
51	29904	18.11	1.6
51	30054	18.21	1.6
51	30204	18.31	1.6
51	30354	18.41	1.6
51	30504	18.51	1.6
51	30654	18.61	1.6
51	30804	18.71	1.6
51	30954	18.81	1.6
51	31104	18.91	1.6
51	31258	19.01	1.6
51	31408	19.11	1.6
51	31558	19.21	1.6
51	31708	19.31	1.6
51	31858	19.41	1.6
51	32008	19.51	1.6
51	32158	19.61	1.6
51	32308	19.71	1.6
51	32458	19.81	1.6
51	32608	19.91	1.6
51	32762	20.01	1.6
51	32912	20.11	1.6
51	33062	20.21	1.6
51	33212	20.31	1.6
51	33362	20.41	1.6
51	33512	20.51	1.6
51	33662	20.61	1.6
51	33812	20.71	1.6
51	33962	20.81	1.6
51	34112	20.91	1.6
51	34266	21.01	1.6
51	34416	21.11	1.6
51	34566	21.21	1.6
51	34716	21.31	1.6
51	34866	21.41	1.6
51	35016	21.51	1.6
51	35166	21.61	1.6
51	35316	21.71	1.6
51	35466	21.81	1.6
51	35616	21.91	1.6
51	35770	22.01	1.6
51	35920	22.11	1.6
51	36070	22.21	1.6
51	36220	22.31	1.6
51	36370	22.41	1.6
51	36520	22.51	1.6
51	36670	22.61	1.6
51	36820	22.71	1.6
51	36970	22.81	1.6
51	37120	22.91	1.6
51	37274	23.01	1.6
51	37424	23.11	1.6
51	37574	23.21	1.6
51	37724	23.31	1.6
51	37874	23.41	1.6
51	38024	23.51	1.6
51	38174	23.61	1.6
51	38324	23.71	1.6
51	38474	23.81	1.6
51	38624	23.91	1.6
51	38778	24.01	1.6
51	38928	24.11	1.6
51	39078	24.21	1.6
51	39228	24.31	1.6
51	39378	24.41	1.6
51	39528	24.51	1.6
51	39678	24.61	1.6
51	39828	24.71	1.6
51	39978	24.81	1.6
51	40128	24.91	1.6
51	40282	25.01	1.6
51	40432	25.11	1.6
51	40582	25.21	1.6
51	40732	25.31	1.6
51	40882	25.41	1.6
51	41032	25.51	1.6
51	41182	25.61	1.6
51	41333	25.71	1.6
51	41483	25.81	1.6
51	41633	25.91	1.6
51	41787	26.01	1.6
51	41937	26.11	1.6
51	42087	26.21	1.6
51	42237	26.31	1.6
51	42387	26.41	1.6
51	42537	26.51	1.6
51	42687	26.61	1.6
51	42837	26.71	1.6
51	42987	26.81	1.6
51	43137	26.91	1.6
51	43291	27.01	1.6
51	43441	27.11	1.6
51	43591	27.21	1.6
51	43741	27.31	1.6
51	43891	27.41	1.6
51	44041	27.51	1.6
51	44191	27.61	1.6
51	44341	27.71	1.6
51	44491	27.81	1.6
51	44641	27.91	1.6
51	44795	28.01	1.6
51	44945	28.11	1.6
51	45095	28.21	1.6
51	45245	28.31	1.6
51	45395	28.41	1.6
51	45545	28.51	1.6
51	45695	28.61	1.6
51	45845	28.71	1.6
51	45995	28.81	1.6
51	46145	28.91	1.6
51	46299	29.01	1.6
51	46449	29.11	1.6
50	26	0.21	522.375
50	176	0.31	520.569
50	326	0.41	518.763
50	476	0.51	516.957
50	626	0.61	515.151
50	776	0.71	513.345
50	926	0.81	511.539
50	1076	0.91	509.733
50	1230	1.01	507.927
50	1381	1.11	506.121
50	1532	1.21	504.316
50	1683	1.31	502.51
50	2046	1.41	500.704
50	2196	1.51	498.899
50	2346	1.61	497.093
50	2496	1.71	495.287
50	2646	1.81	493.482
50	2796	1.91	491.676
50	2950	2.01	489.87
50	3100	2.11	488.065
50	3250	2.21	486.259
50	3400	2.31	484.454
50	3763	2.41	482.648
50	3914	2.51	480.842
50	4064	2.61	479.037
50	4214	2.71	477.231
50	4364	2.81	475.426
50	4514	2.91	473.62
50	4668	3.01	471.815
50	4818	3.11	470.009
50	4968	3.21	468.204
50	5118	3.31	466.398
50	5269	3.41	464.593
50	5676	3.51	462.787
50	5826	3.61	460.981
50	5976	3.71	459.176
50	6126	3.81	457.37
50	6276	3.91	455.565
50	6430	4.01	453.759
50	6580	4.11	451.954
50	6730	4.21	450.148
50	6880	4.31	448.343
50	7030	4.41	446.537
50	7393	4.51	444.732
50	7544	4.61	442.926
50	7694	4.71	441.12
50	7844	4.81	439.315
50	7994	4.91	437.509
50	8148	5.01	435.704
50	8298	5.11	433.898
50	8448	5.21	432.093
50	8598	5.31	430.287
50	8748	5.41	428.482
50	8899	5.51	426.676
50	9262	5.61	424.87
50	9412	5.71	423.065
50	9562	5.81	421.259
50	9712	5.91	419.454
50	9866	6.01	417.648
50	10016	6.11	415.843
50	10166	6.21	414.037
50	10316	6.31	412.231
50	10466	6.41	410.426
50	10616	6.51	408.62
50	11023	6.61	406.815
50	11174	6.71	405.009
50	11324	6.81	403.204
50	11474	6.91	401.398
50	11628	7.01	399.593
50	11778	7.11	397.787
50	11928	7.21	395.981
50	12078	7.31	394.176
50	12228	7.41	392.37
50	12378	7.51	390.565
50	12529	7.61	388.759
50	12892	7.71	386.954
50	13042	7.81	385.148
50	13192	7.91	383.342
50	13346	8.01	381.537
50	13496	8.11	379.731
50	13646	8.21	377.926
50	13796	8.31	376.12
50	13946	8.41	374.315
50	14096	8.51	372.509
50	14246	8.61	370.704
50	14609	8.71	368.898
50	14760	8.81	367.092
50	14910	8.91	365.287
50	15064	9.01	363.481
50	15214	9.11	361.676
50	15364	9.21	359.87
50	15514	9.31	358.065
50	15664	9.41	356.259
50	15814	9.51	354.454
50	15964	9.61	352.648
50	16115	9.71	350.842
50	16522	9.81	349.037
50	16672	9.91	347.231
50	16826	10.01	345.426
50	16976	10.11	343.62
50	17126	10.21	341.815
50	17276	10.31	340.009
50	17426	10.41	338.203
50	17576	10.51	336.398
50	17726	10.61	334.592
50	17876	10.71	332.787
50	18239	10.81	330.981
50	18390	10.91	329.176
50	18544	11.01	327.37
50	18694	11.11	325.565
50	18844	11.21	323.759
50	18994	11.31	321.953
50	19144	11.41	320.148
50	19294	11.51	318.342
50	19444	11.61	316.537
50	19594	11.71	314.731
50	19745	11.81	312.926
50	20108	11.91	311.12
50	20262	12.01	309.315
50	20412	12.11	307.509
50	20562	12.21	305.703
50	20712	12.31	303.898
50	20862	12.41	302.092
50	21012	12.51	300.287
50	21162	12.61	298.481
50	21312	12.71	296.676
50	21462	12.81	294.87
50	21845	12.91	293.064
50	22000	13.01	291.259
50	22150	13.11	289.453
50	22300	13.21	287.648
50	22450	13.31	285.842
50	22600	13.41	284.037
50	22750	13.51	282.231
50	22900	13.61	280.426
50	23050	13.71	278.62
50	23200	13.81	276.814
50	23351	13.91	275.009
50	23738	14.01	273.203
50	23888	14.11	271.398
50	24038	14.21	269.592
50	24188	14.31	267.787
50	24338	14.41	265.981
50	24488	14.51	264.176
50	24638	14.61	262.37
50	24788	14.71	260.564
50	24938	14.81	258.759
50	25088	14.91	256.953
50	25242	15.01	255.148
50	25392	15.11	253.342
50	25542	15.21	251.537
50	25692	15.31	249.731
50	25842	15.41	247.925
50	25992	15.51	246.12
50	26142	15.61	244.314
50	26292	15.71	242.509
50	26442	15.81	240.703
50	26592	15.91	238.898
50	26746	16.01	237.092
50	26896	16.11	235.287
50	27046	16.21	233.481
50	27196	16.31	231.675
50	27346	16.41	229.87
50	27496	16.51	228.064
50	27646	16.61	226.259
50	27796	16.71	224.453
50	27946	16.81	222.648
50	28096	16.91	220.842
50	28250	17.01	219.037
50	28400	17.11	217.231
50	28550	17.21	215.425
50	28700	17.31	213.62
50	28850	17.41	211.814
50	29000	17.51	210.009
50	29150	17.61	208.203
50	29300	17.71	206.398
50	29450	17.81	204.592
50	29600	17.91	202.786
50	29754	18.01	200.981
50	29904	18.11	199.175
50	30054	18.21	197.37
50	30204	18.31	195.564
50	30354	18.41	193.759
50	30504	18.51	191.953
50	30654	18.61	190.148
50	30804	18.71	188.342
50	30954	18.81	186.536
50	31104	18.91	184.731
50	31258	19.01	182.925
50	31408	19.11	181.12
50	31558	19.21	179.314
50	31708	19.31	177.509
50	31858	19.41	175.703
50	32008	19.51	173.898
50	32158	19.61	172.092
50	32308	19.71	170.286
50	32458	19.81	168.481
50	32608	19.91	166.675
50	32762	20.01	164.87
50	32912	20.11	163.064
50	33062	20.21	161.259
50	33212	20.31	159.453
50	33362	20.41	157.647
50	33512	20.51	155.842
50	33662	20.61	154.036
50	33812	20.71	152.231
50	33962	20.81	150.425
50	34112	20.91	148.62
50	34266	21.01	146.814
50	34416	21.11	145.009
50	34566	21.21	143.203
50	34716	21.31	141.397
50	34866	21.41	139.592
50	35016	21.51	137.786
50	35166	21.61	135.981
50	35316	21.71	134.175
50	35466	21.81	132.37
50	35616	21.91	130.564
50	35770	22.01	128.759
50	35920	22.11	126.953
50	36070	22.21	125.147
50	36220	22.31	123.342
50	36370	22.41	121.536
50	36520	22.51	119.731
50	36670	22.61	117.925
50	36820	22.71	116.12
50	36970	22.81	114.314
50	37120	22.91	112.508
50	37274	23.01	110.703
50	37424	23.11	108.897
50	37574	23.21	107.092
50	37724	23.31	105.286
50	37874	23.41	103.481
50	38024	23.51	101.675
50	38174	23.61	99.8696
50	38324	23.71	98.064
50	38474	23.81	96.2585
50	38624	23.91	94.4529
50	38778	24.01	92.6473
50	38928	24.11	90.8418
50	39078	24.21	89.0362
50	39228	24.31	87.2307
50	39378	24.41	85.4251
50	39528	24.51	83.6195
50	39678	24.61	81.814
50	39828	24.71	80.0084
50	39978	24.81	78.2029
50	40128	24.91	76.3973
50	40282	25.01	74.5917
50	40432	25.11	72.7862
50	40582	25.21	70.9806
50	40732	25.31	69.1751
50	40882	25.41	67.3695
50	41032	25.51	65.5639
50	41182	25.61	63.7584
50	41333	25.71	61.9528
50	41483	25.81	60.1473
50	41633	25.91	58.3417
50	41787	26.01	56.5361
50	41937	26.11	54.7306
50	42087	26.21	52.925
50	42237	26.31	51.1195
50	42387	26.41	49.3139
50	42537	26.51	47.5083
50	42687	26.61	45.7028
50	42837	26.71	43.8972
50	42987	26.81	42.0917
50	43137	26.91	40.2861
50	43291	27.01	38.4805
50	43441	27.11	36.675
50	43591	27.21	34.8694
50	43741	27.31	33.0639
50	43891	27.41	31.2583
50	44041	27.51	29.4527
50	44191	27.61	27.6472
50	44341	27.71	25.8416
50	44491	27.81	24.0361
50	44641	27.91	22.2305
50	44795	28.01	20.4249
50	44945	28.11	18.6194
50	45095	28.21	16.8138
50	45245	28.31	15.0083
50	45395	28.41	13.2027
50	45545	28.51	11.3971
50	45695	28.61	9.59158
50	45845	28.71	7.78602
50	45995	28.81	5.98046
50	46145	28.91	4.1749
50	46299	29.01	2.36934
50	46449	29.11	0.563778
49	26	0.21	18.06
49	176	0.31	18.0599
49	326	0.41	18.0597
49	476	0.51	18.0595
49	626	0.61	18.0592
49	776	0.71	18.059
49	926	0.81	18.0587
49	1076	0.91	18.0584
49	1230	1.01	18.0581
49	1381	1.11	18.0579
49	1532	1.21	18.0576
49	1683	1.31	18.0573
49	2046	1.41	18.0571
49	2196	1.51	18.0569
49	2346	1.61	18.0567
49	2496	1.71	18.0565
49	2646	1.81	18.0563
49	2796	1.91	18.0562
49	2950	2.01	18.056
49	3100	2.11	18.0559
49	3250	2.21	18.0558
49	3400	2.31	18.0557
49	3763	2.41	18.0556
49	3914	2.51	18.0556
49	4064	2.61	18.0555
49	4214	2.71	18.0555
49	4364	2.81	18.0555
49	4514	2.91	18.0554
49	4668	3.01	18.0554
49	4818	3.11	18.0554
49	4968	3.21	18.0554
49	5118	3.31	18.0554
49	5269	3.41	18.0554
49	5676	3.51	18.0554
49	5826	3.61	18.0554
49	5976	3.71	18.0554
49	6126	3.81	18.0554
49	6276	3.91	18.0555
49	6430	4.01	18.0555
49	6580	4.11	18.0555
49	6730	4.21	18.0555
49	6880	4.31	18.0555
49	7030	4.41	18.0555
49	7393	4.51	18.0555
49	7544	4.61	18.0555
49	7694	4.71	18.0555
49	7844	4.81	18.0556
49	7994	4.91	18.0556
49	8148	5.01	18.0556
49	8298	5.11	18.0556
49	8448	5.21	18.0556
49	8598	5.31	18.0556
49	8748	5.41	18.0556
49	8899	5.51	18.0556
49	9262	5.61	18.0556
49	9412	5.71	18.0556
49	9562	5.81	18.0556
49	9712	5.91	18.0556
49	9866	6.01	18.0556
49	10016	6.11	18.0556
49	10166	6.21	18.0556
49	10316	6.31	18.0556
49	10466	6.41	18.0556
49	10616	6.51	18.0556
49	11023	6.61	18.0556
49	11174	6.71	18.0556
49	11324	6.81	18.0556
49	11474	6.91	18.0556
49	11628	7.01	18.0556
49	11778	7.11	18.0556
49	11928	7.21	18.0556
49	12078	7.31	18.0556
49	12228	7.41	18.0556
49	12378	7.51	18.0556
49	12529	7.61	18.0556
49	12892	7.71	18.0556
49	13042	7.81	18.0556
49	13192	7.91	18.0556
49	13346	8.01	18.0556
49	13496	8.11	18.0556
49	13646	8.21	18.0556
49	13796	8.31	18.0556
49	13946	8.41	18.0556
49	14096	8.51	18.0556
49	14246	8.61	18.0556
49	14609	8.71	18.0556
49	14760	8.81	18.0556
49	14910	8.91	18.0556
49	15064	9.01	18.0556
49	15214	9.11	18.0556
49	15364	9.21	18.0556
49	15514	9.31	18.0556
49	15664	9.41	18.0556
49	15814	9.51	18.0556
49	15964	9.61	18.0556
49	16115	9.71	18.0556
49	16522	9.81	18.0556
49	16672	9.91	18.0556
49	16826	10.01	18.0556
49	16976	10.11	18.0556
49	17126	10.21	18.0556
49	17276	10.31	18.0556
49	17426	10.41	18.0556
49	17576	10.51	18.0556
49	17726	10.61	18.0556
49	17876	10.71	18.0556
49	18239	10.81	18.0556
49	18390	10.91	18.0556
49	18544	11.01	18.0556
49	18694	11.11	18.0556
49	18844	11.21	18.0556
49	18994	11.31	18.0556
49	19144	11.41	18.0556
49	19294	11.51	18.0556
49	19444	11.61	18.0556
49	19594	11.71	18.0556
49	19745	11.81	18.0556
49	20108	11.91	18.0556
49	20262	12.01	18.0556
49	20412	12.11	18.0556
49	20562	12.21	18.0556
49	20712	12.31	18.0556
49	20862	12.41	18.0556
49	21012	12.51	18.0556
49	21162	12.61	18.0556
49	21312	12.71	18.0556
49	21462	12.81	18.0556
49	21845	12.91	18.0556
49	22000	13.01	18.0556
49	22150	13.11	18.0556
49	22300	13.21	18.0556
49	22450	13.31	18.0556
49	22600	13.41	18.0556
49	22750	13.51	18.0556
49	22900	13.61	18.0556
49	23050	13.71	18.0556
49	23200	13.81	18.0556
49	23351	13.91	18.0556
49	23738	14.01	18.0556
49	23888	14.11	18.0556
49	24038	14.21	18.0556
49	24188	14.31	18.0556
49	24338	14.41	18.0556
49	24488	14.51	18.0556
49	24638	14.61	18.0556
49	24788	14.71	18.0556
49	24938	14.81	18.0556
49	25088	14.91	18.0556
49	25242	15.01	18.0556
49	25392	15.11	18.0556
49	25542	15.21	18.0556
49	25692	15.31	18.0556
49	25842	15.41	18.0556
49	25992	15.51	18.0556
49	26142	15.61	18.0556
49	26292	15.71	18.0556
49	26442	15.81	18.0556
49	26592	15.91	18.0556
49	26746	16.01	18.0556
49	26896	16.11	18.0556
49	27046	16.21	18.0556
49	27196	16.31	18.0556
49	27346	16.41	18.0556
49	27496	16.51	18.0556
49	27646	16.61	18.0556
49	27796	16.71	18.0556
49	27946	16.81	18.0556
49	28096	16.91	18.0556
49	28250	17.01	18.0556
49	28400	17.11	18.0556
49	28550	17.21	18.0556
49	28700	17.31	18.0556
49	28850	17.41	18.0556
49	29000	17.51	18.0556
49	29150	17.61	18.0556
49	29300	17.71	18.0556
49	29450	17.81	18.0556
49	29600	17.91	18.0556
49	29754	18.01	18.0556
49	29904	18.11	18.0556
49	30054	18.21	18.0556
49	30204	18.31	18.0556
49	30354	18.41	18.0556
49	30504	18.51	18.0556
49	30654	18.61	18.0556
49	30804	18.71	18.0556
49	30954	18.81	18.0556
49	31104	18.91	18.0556
49	31258	19.01	18.0556
49	31408	19.11	18.0556
49	31558	19.21	18.0556
49	31708	19.31	18.0556
49	31858	19.41	18.0556
49	32008	19.51	18.0556
49	32158	19.61	18.0556
49	32308	19.71	18.0556
49	32458	19.81	18.0556
49	32608	19.91	18.0556
49	32762	20.01	18.0556
49	32912	20.11	18.0556
49	33062	20.21	18.0556
49	33212	20.31	18.0556
49	33362	20.41	18.0556
49	33512	20.51	18.0556
49	33662	20.61	18.0556
49	33812	20.71	18.0556
49	33962	20.81	18.0556
49	34112	20.91	18.0556
49	34266	21.01	18.0556
49	34416	21.11	18.0556
49	34566	21.21	18.0556
49	34716	21.31	18.0556
49	34866	21.41	18.0556
49	35016	21.51	18.0556
49	35166	21.61	18.0556
49	35316	21.71	18.0556
49	35466	21.81	18.0556
49	35616	21.91	18.0556
49	35770	22.01	18.0556
49	35920	22.11	18.0556
49	36070	22.21	18.0556
49	36220	22.31	18.0556
49	36370	22.41	18.0556
49	36520	22.51	18.0556
49	36670	22.61	18.0556
49	36820	22.71	18.0556
49	36970	22.81	18.0556
49	37120	22.91	18.0556
49	37274	23.01	18.0556
49	37424	23.11	18.0556
49	37574	23.21	18.0556
49	37724	23.31	18.0556
49	37874	23.41	18.0556
49	38024	23.51	18.0556
49	38174	23.61	18.0556
49	38324	23.71	18.0556
49	38474	23.81	18.0556
49	38624	23.91	18.0556
49	38778	24.01	18.0556
49	38928	24.11	18.0556
49	39078	24.21	18.0556
49	39228	24.31	18.0556
49	39378	24.41	18.0556
49	39528	24.51	18.0556
49	39678	24.61	18.0556
49	39828	24.71	18.0556
49	39978	24.81	18.0556
49	40128	24.91	18.0556
49	40282	25.01	18.0556
49	40432	25.11	18.0556
49	40582	25.21	18.0556
49	40732	25.31	18.0556
49	40882	25.41	18.0556
49	41032	25.51	18.0556
49	41182	25.61	18.0556
49	41333	25.71	18.0556
49	41483	25.81	18.0556
49	41633	25.91	18.0556
49	41787	26.01	18.0556
49	41937	26.11	18.0556
49	42087	26.21	18.0556
49	42237	26.31	18.0556
49	42387	26.41	18.0556
49	42537	26.51	18.0556
49	42687	26.61	18.0556
49	42837	26.71	18.0556
49	42987	26.81	18.0556
49	43137	26.91	18.0556
49	43291	27.01	18.0556
49	43441	27.11	18.0556
49	43591	27.21	18.0556
49	43741	27.31	18.0556
49	43891	27.41	18.0556
49	44041	27.51	18.0556
49	44191	27.61	18.0556
49	44341	27.71	18.0556
49	44491	27.81	18.0556
49	44641	27.91	18.0556
49	44795	28.01	18.0556
49	44945	28.11	18.0556
49	45095	28.21	18.0556
49	45245	28.31	18.0556
49	45395	28.41	18.0556
49	45545	28.51	18.0556
49	45695	28.61	18.0556
49	45845	28.71	18.0556
49	45995	28.81	18.0556
49	46145	28.91	18.0556
49	46299	29.01	18.0556
49	46449	29.11	18.0556
45	26	0.21	0
45	176	0.31	0
45	326	0.41	0
45	476	0.51	0
45	626	0.61	0
45	776	0.71	0
45	926	0.81	0
45	1076	0.91	0
45	1230	1.01	0
45	1381	1.11	0
45	1532	1.21	0
45	1683	1.31	0
45	2046	1.41	0
45	2196	1.51	0
45	2346	1.61	0
45	2496	1.71	0
45	2646	1.81	0
45	2796	1.91	0
45	2950	2.01	0
45	3100	2.11	0
45	3250	2.21	0
45	3400	2.31	0
45	3763	2.41	0
45	3914	2.51	0
45	4064	2.61	0
45	4214	2.71	0
45	4364	2.81	0
45	4514	2.91	0
45	4668	3.01	0
45	4818	3.11	0
45	4968	3.21	0
45	5118	3.31	0
45	5269	3.41	0
45	5676	3.51	0
45	5826	3.61	0
45	5976	3.71	0
45	6126	3.81	0
45	6276	3.91	0
45	6430	4.01	0
45	6580	4.11	0
45	6730	4.21	0
45	6880	4.31	0
45	7030	4.41	0
45	7393	4.51	0
45	7544	4.61	0
45	7694	4.71	0
45	7844	4.81	0
45	7994	4.91	0
45	8148	5.01	0
45	8298	5.11	0
45	8448	5.21	0
45	8598	5.31	0
45	8748	5.41	0
45	8899	5.51	0
45	9262	5.61	0
45	9412	5.71	0
45	9562	5.81	0
45	9712	5.91	0
45	9866	6.01	0
45	10016	6.11	0
45	10166	6.21	0
45	10316	6.31	0
45	10466	6.41	0
45	10616	6.51	0
45	11023	6.61	0
45	11174	6.71	0
45	11324	6.81	0
45	11474	6.91	0
45	11628	7.01	0
45	11778	7.11	0
45	11928	7.21	0
45	12078	7.31	0
45	12228	7.41	0
45	12378	7.51	0
45	12529	7.61	0
45	12892	7.71	0
45	13042	7.81	0
45	13192	7.91	0
45	13346	8.01	0
45	13496	8.11	0
45	13646	8.21	0
45	13796	8.31	0
45	13946	8.41	0
45	14096	8.51	0
45	14246	8.61	0
45	14609	8.71	0
45	14760	8.81	0
45	14910	8.91	0
45	15064	9.01	0
45	15214	9.11	0
45	15364	9.21	0
45	15514	9.31	0
45	15664	9.41	0
45	15814	9.51	0
45	15964	9.61	0
45	16115	9.71	0
45	16522	9.81	0
45	16672	9.91	0
45	16826	10.01	0
45	16976	10.11	0
45	17126	10.21	0
45	17276	10.31	0
45	17426	10.41	0
45	17576	10.51	0
45	17726	10.61	0
45	17876	10.71	0
45	18239	10.81	0
45	18390	10.91	0
45	18544	11.01	0
45	18694	11.11	0
45	18844	11.21	0
45	18994	11.31	0
45	19144	11.41	0
45	19294	11.51	0
45	19444	11.61	0
45	19594	11.71	0
45	19745	11.81	0
45	20108	11.91	0
45	20262	12.01	0
45	20412	12.11	0
45	20562	12.21	0
45	20712	12.31	0
45	20862	12.41	0
45	21012	12.51	0
45	21162	12.61	0
45	21312	12.71	0
45	21462	12.81	0
45	21845	12.91	0
45	22000	13.01	0
45	22150	13.11	0
45	22300	13.21	0
45	22450	13.31	0
45	22600	13.41	0
45	22750	13.51	0
45	22900	13.61	0
45	23050	13.71	0
45	23200	13.81	0
45	23351	13.91	0
45	23738	14.01	0
45	23888	14.11	0
45	24038	14.21	0
45	24188	14.31	0
45	24338	14.41	0
45	24488	14.51	0
45	24638	14.61	0
45	24788	14.71	0
45	24938	14.81	0
45	25088	14.91	0
45	25242	15.01	0
45	25392	15.11	0
45	25542	15.21	0
45	25692	15.31	0
45	25842	15.41	0
45	25992	15.51	0
45	26142	15.61	0
45	26292	15.71	0
45	26442	15.81	0
45	26592	15.91	0
45	26746	16.01	0
45	26896	16.11	0
45	27046	16.21	0
45	27196	16.31	0
45	27346	16.41	0
45	27496	16.51	0
45	27646	16.61	0
45	27796	16.71	0
45	27946	16.81	0
45	28096	16.91	0
45	28250	17.01	0
45	28400	17.11	0
45	28550	17.21	0
45	28700	17.31	0
45	28850	17.41	0
45	29000	17.51	0
45	29150	17.61	0
45	29300	17.71	0
45	29450	17.81	0
45	29600	17.91	0
45	29754	18.01	0
45	29904	18.11	0
45	30054	18.21	0
45	30204	18.31	0
45	30354	18.41	0
45	30504	18.51	0
45	30654	18.61	0
45	30804	18.71	0
45	30954	18.81	0
45	31104	18.91	0
45	31258	19.01	0
45	31408	19.11	0
45	31558	19.21	0
45	31708	19.31	0
45	31858	19.41	0
45	32008	19.51	0
45	32158	19.61	0
45	32308	19.71	0
45	32458	19.81	0
45	32608	19.91	0
45	32762	20.01	0
45	32912	20.11	0
45	33062	20.21	0
45	33212	20.31	0
45	33362	20.41	0
45	33512	20.51	0
45	33662	20.61	0
45	33812	20.71	0
45	33962	20.81	0
45	34112	20.91	0
45	34266	21.01	0
45	34416	21.11	0
45	34566	21.21	0
45	34716	21.31	0
45	34866	21.41	0
45	35016	21.51	0
45	35166	21.61	0
45	35316	21.71	0
45	35466	21.81	0
45	35616	21.91	0
45	35770	22.01	0
45	35920	22.11	0
45	36070	22.21	0
45	36220	22.31	0
45	36370	22.41	0
45	36520	22.51	0
45	36670	22.61	0
45	36820	22.71	0
45	36970	22.81	0
45	37120	22.91	0
45	37274	23.01	0
45	37424	23.11	0
45	37574	23.21	0
45	37724	23.31	0
45	37874	23.41	0
45	38024	23.51	0
45	38174	23.61	0
45	38324	23.71	0
45	38474	23.81	0
45	38624	23.91	0
45	38778	24.01	0
45	38928	24.11	0
45	39078	24.21	0
45	39228	24.31	0
45	39378	24.41	0
45	39528	24.51	0
45	39678	24.61	0
45	39828	24.71	0
45	39978	24.81	0
45	40128	24.91	0
45	40282	25.01	0
45	40432	25.11	0
45	40582	25.21	0
45	40732	25.31	0
45	40882	25.41	0
45	41032	25.51	0
45	41182	25.61	0
45	41333	25.71	0
45	41483	25.81	0
45	41633	25.91	0
45	41787	26.01	0
45	41937	26.11	0
45	42087	26.21	0
45	42237	26.31	0
45	42387	26.41	0
45	42537	26.51	0
45	42687	26.61	0
45	42837	26.71	0
45	42987	26.81	0
45	43137	26.91	0
45	43291	27.01	0
45	43441	27.11	0
45	43591	27.21	0
45	43741	27.31	0
45	43891	27.41	0
45	44041	27.51	0
45	44191	27.61	0
45	44341	27.71	0
45	44491	27.81	0
45	44641	27.91	0
45	44795	28.01	0
45	44945	28.11	0
45	45095	28.21	0
45	45245	28.31	0
45	45395	28.41	0
45	45545	28.51	0
45	45695	28.61	0
45	45845	28.71	0
45	45995	28.81	0
45	46145	28.91	0
45	46299	29.01	0
45	46449	29.11	0
44	26	0.21	-1
44	176	0.31	-1
44	326	0.41	-1
44	476	0.51	-1
44	626	0.61	-1
44	776	0.71	-1
44	926	0.81	-1
44	1076	0.91	-1
44	1230	1.01	-1
44	1381	1.11	-1
44	1532	1.21	-1
44	1683	1.31	-1
44	2046	1.41	-1
44	2196	1.51	-1
44	2346	1.61	-1
44	2496	1.71	-1
44	2646	1.81	-1
44	2796	1.91	-1
44	2950	2.01	-1
44	3100	2.11	-1
44	3250	2.21	-1
44	3400	2.31	-1
44	3763	2.41	-1
44	3914	2.51	-1
44	4064	2.61	-1
44	4214	2.71	-1
44	4364	2.81	-1
44	4514	2.91	-1
44	4668	3.01	-1
44	4818	3.11	-1
44	4968	3.21	-1
44	5118	3.31	-1
44	5269	3.41	-1
44	5676	3.51	-1
44	5826	3.61	-1
44	5976	3.71	-1
44	6126	3.81	-1
44	6276	3.91	-1
44	6430	4.01	-1
44	6580	4.11	-1
44	6730	4.21	-1
44	6880	4.31	-1
44	7030	4.41	-1
44	7393	4.51	-1
44	7544	4.61	-1
44	7694	4.71	-1
44	7844	4.81	-1
44	7994	4.91	-1
44	8148	5.01	-1
44	8298	5.11	-1
44	8448	5.21	-1
44	8598	5.31	-1
44	8748	5.41	-1
44	8899	5.51	-1
44	9262	5.61	-1
44	9412	5.71	-1
44	9562	5.81	-1
44	9712	5.91	-1
44	9866	6.01	-1
44	10016	6.11	-1
44	10166	6.21	-1
44	10316	6.31	-1
44	10466	6.41	-1
44	10616	6.51	-1
44	11023	6.61	-1
44	11174	6.71	-1
44	11324	6.81	-1
44	11474	6.91	-1
44	11628	7.01	-1
44	11778	7.11	-1
44	11928	7.21	-1
44	12078	7.31	-1
44	12228	7.41	-1
44	12378	7.51	-1
44	12529	7.61	-1
44	12892	7.71	-1
44	13042	7.81	-1
44	13192	7.91	-1
44	13346	8.01	-1
44	13496	8.11	-1
44	13646	8.21	-1
44	13796	8.31	-1
44	13946	8.41	-1
44	14096	8.51	-1
44	14246	8.61	-1
44	14609	8.71	-1
44	14760	8.81	-1
44	14910	8.91	-1
44	15064	9.01	-1
44	15214	9.11	-1
44	15364	9.21	-1
44	15514	9.31	-1
44	15664	9.41	-1
44	15814	9.51	-1
44	15964	9.61	-1
44	16115	9.71	-1
44	16522	9.81	-1
44	16672	9.91	-1
44	16826	10.01	-1
44	16976	10.11	-1
44	17126	10.21	-1
44	17276	10.31	-1
44	17426	10.41	-1
44	17576	10.51	-1
44	17726	10.61	-1
44	17876	10.71	-1
44	18239	10.81	-1
44	18390	10.91	-1
44	18544	11.01	-1
44	18694	11.11	-1
44	18844	11.21	-1
44	18994	11.31	-1
44	19144	11.41	-1
44	19294	11.51	-1
44	19444	11.61	-1
44	19594	11.71	-1
44	19745	11.81	-1
44	20108	11.91	-1
44	20262	12.01	-1
44	20412	12.11	-1
44	20562	12.21	-1
44	20712	12.31	-1
44	20862	12.41	-1
44	21012	12.51	-1
44	21162	12.61	-1
44	21312	12.71	-1
44	21462	12.81	-1
44	21845	12.91	-1
44	22000	13.01	-1
44	22150	13.11	-1
44	22300	13.21	-1
44	22450	13.31	-1
44	22600	13.41	-1
44	22750	13.51	-1
44	22900	13.61	-1
44	23050	13.71	-1
44	23200	13.81	-1
44	23351	13.91	-1
44	23738	14.01	-1
44	23888	14.11	-1
44	24038	14.21	-1
44	24188	14.31	-1
44	24338	14.41	-1
44	24488	14.51	-1
44	24638	14.61	-1
44	24788	14.71	-1
44	24938	14.81	-1
44	25088	14.91	-1
44	25242	15.01	-1
44	25392	15.11	-1
44	25542	15.21	-1
44	25692	15.31	-1
44	25842	15.41	-1
44	25992	15.51	-1
44	26142	15.61	-1
44	26292	15.71	-1
44	26442	15.81	-1
44	26592	15.91	-1
44	26746	16.01	-1
44	26896	16.11	-1
44	27046	16.21	-1
44	27196	16.31	-1
44	27346	16.41	-1
44	27496	16.51	-1
44	27646	16.61	-1
44	27796	16.71	-1
44	27946	16.81	-1
44	28096	16.91	-1
44	28250	17.01	-1
44	28400	17.11	-1
44	28550	17.21	-1
44	28700	17.31	-1
44	28850	17.41	-1
44	29000	17.51	-1
44	29150	17.61	-1
44	29300	17.71	-1
44	29450	17.81	-1
44	29600	17.91	-1
44	29754	18.01	-1
44	29904	18.11	-1
44	30054	18.21	-1
44	30204	18.31	-1
44	30354	18.41	-1
44	30504	18.51	-1
44	30654	18.61	-1
44	30804	18.71	-1
44	30954	18.81	-1
44	31104	18.91	-1
44	31258	19.01	-1
44	31408	19.11	-1
44	31558	19.21	-1
44	31708	19.31	-1
44	31858	19.41	-1
44	32008	19.51	-1
44	32158	19.61	-1
44	32308	19.71	-1
44	32458	19.81	-1
44	32608	19.91	-1
44	32762	20.01	-1
44	32912	20.11	-1
44	33062	20.21	-1
44	33212	20.31	-1
44	33362	20.41	-1
44	33512	20.51	-1
44	33662	20.61	-1
44	33812	20.71	-1
44	33962	20.81	-1
44	34112	20.91	-1
44	34266	21.01	-1
44	34416	21.11	-1
44	34566	21.21	-1
44	34716	21.31	-1
44	34866	21.41	-1
44	35016	21.51	-1
44	35166	21.61	-1
44	35316	21.71	-1
44	35466	21.81	-1
44	35616	21.91	-1
44	35770	22.01	-1
44	35920	22.11	-1
44	36070	22.21	-1
44	36220	22.31	-1
44	36370	22.41	-1
44	36520	22.51	-1
44	36670	22.61	-1
44	36820	22.71	-1
44	36970	22.81	-1
44	37120	22.91	-1
44	37274	23.01	-1
44	37424	23.11	-1
44	37574	23.21	-1
44	37724	23.31	-1
44	37874	23.41	-1
44	38024	23.51	-1
44	38174	23.61	-1
44	38324	23.71	-1
44	38474	23.81	-1
44	38624	23.91	-1
44	38778	24.01	-1
44	38928	24.11	-1
44	39078	24.21	-1
44	39228	24.31	-1
44	39378	24.41	-1
44	39528	24.51	-1
44	39678	24.61	-1
44	39828	24.71	-1
44	39978	24.81	-1
44	40128	24.91	-1
44	40282	25.01	-1
44	40432	25.11	-1
44	40582	25.21	-1
44	40732	25.31	-1
44	40882	25.41	-1
44	41032	25.51	-1
44	41182	25.61	-1
44	41333	25.71	-1
44	41483	25.81	-1
44	41633	25.91	-1
44	41787	26.01	-1
44	41937	26.11	-1
44	42087	26.21	-1
44	42237	26.31	-1
44	42387	26.41	-1
44	42537	26.51	-1
44	42687	26.61	-1
44	42837	26.71	-1
44	42987	26.81	-1
44	43137	26.91	-1
44	43291	27.01	-1
44	43441	27.11	-1
44	43591	27.21	-1
44	43741	27.31	-1
44	43891	27.41	-1
44	44041	27.51	-1
44	44191	27.61	-1
44	44341	27.71	-1
44	44491	27.81	-1
44	44641	27.91	-1
44	44795	28.01	-1
44	44945	28.11	-1
44	45095	28.21	-1
44	45245	28.31	-1
44	45395	28.41	-1
44	45545	28.51	-1
44	45695	28.61	-1
44	45845	28.71	-1
44	45995	28.81	-1
44	46145	28.91	-1
44	46299	29.01	-1
44	46449	29.11	-1
46	26	0.21	3
46	176	0.31	3
46	326	0.41	3
46	476	0.51	3
46	626	0.61	3
46	776	0.71	3
46	926	0.81	3
46	1076	0.91	3
46	1230	1.01	3
46	1381	1.11	3
46	1532	1.21	3
46	1683	1.31	3
46	2046	1.41	3
46	2196	1.51	3
46	2346	1.61	3
46	2496	1.71	3
46	2646	1.81	3
46	2796	1.91	3
46	2950	2.01	3
46	3100	2.11	3
46	3250	2.21	3
46	3400	2.31	3
46	3763	2.41	3
46	3914	2.51	3
46	4064	2.61	3
46	4214	2.71	3
46	4364	2.81	3
46	4514	2.91	3
46	4668	3.01	3
46	4818	3.11	3
46	4968	3.21	3
46	5118	3.31	3
46	5269	3.41	3
46	5676	3.51	3
46	5826	3.61	3
46	5976	3.71	3
46	6126	3.81	3
46	6276	3.91	3
46	6430	4.01	3
46	6580	4.11	3
46	6730	4.21	3
46	6880	4.31	3
46	7030	4.41	3
46	7393	4.51	3
46	7544	4.61	3
46	7694	4.71	3
46	7844	4.81	3
46	7994	4.91	3
46	8148	5.01	3
46	8298	5.11	3
46	8448	5.21	3
46	8598	5.31	3
46	8748	5.41	3
46	8899	5.51	3
46	9262	5.61	3
46	9412	5.71	3
46	9562	5.81	3
46	9712	5.91	3
46	9866	6.01	3
46	10016	6.11	3
46	10166	6.21	3
46	10316	6.31	3
46	10466	6.41	3
46	10616	6.51	3
46	11023	6.61	3
46	11174	6.71	3
46	11324	6.81	3
46	11474	6.91	3
46	11628	7.01	3
46	11778	7.11	3
46	11928	7.21	3
46	12078	7.31	3
46	12228	7.41	3
46	12378	7.51	3
46	12529	7.61	3
46	12892	7.71	3
46	13042	7.81	3
46	13192	7.91	3
46	13346	8.01	3
46	13496	8.11	3
46	13646	8.21	3
46	13796	8.31	3
46	13946	8.41	3
46	14096	8.51	3
46	14246	8.61	3
46	14609	8.71	3
46	14760	8.81	3
46	14910	8.91	3
46	15064	9.01	3
46	15214	9.11	3
46	15364	9.21	3
46	15514	9.31	3
46	15664	9.41	3
46	15814	9.51	3
46	15964	9.61	3
46	16115	9.71	3
46	16522	9.81	3
46	16672	9.91	3
46	16826	10.01	3
46	16976	10.11	3
46	17126	10.21	3
46	17276	10.31	3
46	17426	10.41	3
46	17576	10.51	3
46	17726	10.61	3
46	17876	10.71	3
46	18239	10.81	3
46	18390	10.91	3
46	18544	11.01	3
46	18694	11.11	3
46	18844	11.21	3
46	18994	11.31	3
46	19144	11.41	3
46	19294	11.51	3
46	19444	11.61	3
46	19594	11.71	3
46	19745	11.81	3
46	20108	11.91	3
46	20262	12.01	3
46	20412	12.11	3
46	20562	12.21	3
46	20712	12.31	3
46	20862	12.41	3
46	21012	12.51	3
46	21162	12.61	3
46	21312	12.71	3
46	21462	12.81	3
46	21845	12.91	3
46	22000	13.01	3
46	22150	13.11	3
46	22300	13.21	3
46	22450	13.31	3
46	22600	13.41	3
46	22750	13.51	3
46	22900	13.61	3
46	23050	13.71	3
46	23200	13.81	3
46	23351	13.91	3
46	23738	14.01	3
46	23888	14.11	3
46	24038	14.21	3
46	24188	14.31	3
46	24338	14.41	3
46	24488	14.51	3
46	24638	14.61	3
46	24788	14.71	3
46	24938	14.81	3
46	25088	14.91	3
46	25242	15.01	3
46	25392	15.11	3
46	25542	15.21	3
46	25692	15.31	3
46	25842	15.41	3
46	25992	15.51	3
46	26142	15.61	3
46	26292	15.71	3
46	26442	15.81	3
46	26592	15.91	3
46	26746	16.01	3
46	26896	16.11	3
46	27046	16.21	3
46	27196	16.31	3
46	27346	16.41	3
46	27496	16.51	3
46	27646	16.61	3
46	27796	16.71	3
46	27946	16.81	3
46	28096	16.91	3
46	28250	17.01	3
46	28400	17.11	3
46	28550	17.21	3
46	28700	17.31	3
46	28850	17.41	3
46	29000	17.51	3
46	29150	17.61	3
46	29300	17.71	3
46	29450	17.81	3
46	29600	17.91	3
46	29754	18.01	3
46	29904	18.11	3
46	30054	18.21	3
46	30204	18.31	3
46	30354	18.41	3
46	30504	18.51	3
46	30654	18.61	3
46	30804	18.71	3
46	30954	18.81	3
46	31104	18.91	3
46	31258	19.01	3
46	31408	19.11	3
46	31558	19.21	3
46	31708	19.31	3
46	31858	19.41	3
46	32008	19.51	3
46	32158	19.61	3
46	32308	19.71	3
46	32458	19.81	3
46	32608	19.91	3
46	32762	20.01	3
46	32912	20.11	3
46	33062	20.21	3
46	33212	20.31	3
46	33362	20.41	3
46	33512	20.51	3
46	33662	20.61	3
46	33812	20.71	3
46	33962	20.81	3
46	34112	20.91	3
46	34266	21.01	3
46	34416	21.11	3
46	34566	21.21	3
46	34716	21.31	3
46	34866	21.41	3
46	35016	21.51	3
46	35166	21.61	3
46	35316	21.71	3
46	35466	21.81	3
46	35616	21.91	3
46	35770	22.01	3
46	35920	22.11	3
46	36070	22.21	3
46	36220	22.31	3
46	36370	22.41	3
46	36520	22.51	3
46	36670	22.61	3
46	36820	22.71	3
46	36970	22.81	3
46	37120	22.91	3
46	37274	23.01	3
46	37424	23.11	3
46	37574	23.21	3
46	37724	23.31	3
46	37874	23.41	3
46	38024	23.51	3
46	38174	23.61	3
46	38324	23.71	3
46	38474	23.81	3
46	38624	23.91	3
46	38778	24.01	3
46	38928	24.11	3
46	39078	24.21	3
46	39228	24.31	3
46	39378	24.41	3
46	39528	24.51	3
46	39678	24.61	3
46	39828	24.71	3
46	39978	24.81	3
46	40128	24.91	3
46	40282	25.01	3
46	40432	25.11	3
46	40582	25.21	3
46	40732	25.31	3
46	40882	25.41	3
46	41032	25.51	3
46	41182	25.61	3
46	41333	25.71	3
46	41483	25.81	3
46	41633	25.91	3
46	41787	26.01	3
46	41937	26.11	3
46	42087	26.21	3
46	42237	26.31	3
46	42387	26.41	3
46	42537	26.51	3
46	42687	26.61	3
46	42837	26.71	3
46	42987	26.81	3
46	43137	26.91	3
46	43291	27.01	3
46	43441	27.11	3
46	43591	27.21	3
46	43741	27.31	3
46	43891	27.41	3
46	44041	27.51	3
46	44191	27.61	3
46	44341	27.71	3
46	44491	27.81	3
46	44641	27.91	3
46	44795	28.01	3
46	44945	28.11	3
46	45095	28.21	3
46	45245	28.31	3
46	45395	28.41	3
46	45545	28.51	3
46	45695	28.61	3
46	45845	28.71	3
46	45995	28.81	3
46	46145	28.91	3
46	46299	29.01	3
46	46449	29.11	3
67	1191	1	0
67	2911	2	0
67	4629	3	0
67	6391	4	0
67	8109	5	0
67	9827	6	0
67	11589	7	0
67	13307	8	0
67	15025	9	0
67	16787	10	0
67	18505	11	0
67	20223	12	0
67	21961	13	0
67	23699	14	0
67	25203	15	0
67	26707	16	0
67	28211	17	0
67	29715	18	0
67	31219	19	0
67	32723	20	0
67	34227	21	0
67	35731	22	0
67	37235	23	0
67	38739	24	0
67	40243	25	0
67	41748	26	0
67	43252	27	0
67	44756	28	0
67	46260	29	0
66	1191	1	0.009679
66	2911	2	0.01300581127
66	4629	3	0.0130055389
66	6391	4	0.013053283684
66	8109	5	0.013005033682
66	9827	6	0.013004785512
66	11589	7	0.013147539126
66	13307	8	0.013004294814
66	15025	9	0.013004052558
66	16787	10	0.01314681219
66	18505	11	0.013003573538
66	20223	12	0.013003336536
66	21961	13	0.01300310217
66	23699	14	0.013003136504
66	25203	15	0.01249
66	26707	16	0.01249
66	28211	17	0.01249
66	29715	18	0.01249
66	31219	19	0.01249
66	32723	20	0.01249
66	34227	21	0.01249
66	35731	22	0.01249
66	37235	23	0.01249
66	38739	24	0.01249
66	40243	25	0.01249
66	41748	26	0.01249
66	43252	27	0.01249
66	44756	28	0.01249
66	46260	29	0.01249
65	1191	1	3
65	2911	2	3
65	4629	3	3
65	6391	4	3
65	8109	5	3
65	9827	6	3
65	11589	7	3
65	13307	8	3
65	15025	9	3
65	16787	10	3
65	18505	11	3
65	20223	12	3
65	21961	13	3
65	23699	14	3
65	25203	15	3
65	26707	16	3
65	28211	17	3
65	29715	18	3
65	31219	19	3
65	32723	20	3
65	34227	21	3
65	35731	22	3
65	37235	23	3
65	38739	24	3
65	40243	25	3
65	41748	26	3
65	43252	27	3
65	44756	28	3
65	46260	29	3
19	15	0.13	2.5246296103056
19	16	0.14	2.5242685517836
19	17	0.15	2.5239146700697
19	18	0.16	2.5235678938752
19	19	0.17	2.5232281519162
19	20	0.18	2.5228953729224
19	21	0.19	2.5225694856543
19	22	0.2	2.5222504189176
19	27	0.21	2.5219381015723
19	62	0.22	2.5216324625499
19	97	0.23	2.521333430863
19	98	0.24	2.5210409356173
19	99	0.25	2.5207549060279
19	134	0.26	2.5204752714267
19	135	0.27	2.5202019612766
19	136	0.28	2.5199349051823
19	137	0.29	2.5196740328985
19	138	0.3	2.5194192743453
19	177	0.31	2.519170559616
19	212	0.32	2.5189278189884
19	247	0.33	2.5186909829336
19	248	0.34	2.5184599821293
19	249	0.35	2.5182347474642
19	284	0.36	2.5180152100518
19	285	0.37	2.5178013012387
19	286	0.38	2.517592952611
19	287	0.39	2.5173900960063
19	288	0.4	2.5171926635191
19	327	0.41	2.5170005875144
19	362	0.42	2.516813800628
19	397	0.43	2.5166322357809
19	398	0.44	2.5164558261836
19	399	0.45	2.5162845053441
19	434	0.46	2.5161182070778
19	435	0.47	2.5159568655084
19	436	0.48	2.5158004150828
19	437	0.49	2.5156487905707
19	438	0.5	2.5155019270742
19	477	0.51	2.5153597600357
19	512	0.52	2.5152222252398
19	547	0.53	2.5150892588207
19	548	0.54	2.5149607972706
19	549	0.55	2.5148367774428
19	584	0.56	2.5147171365562
19	585	0.57	2.5146018122022
19	586	0.58	2.514490742349
19	587	0.59	2.5143838653451
19	588	0.6	2.5142811199287
19	627	0.61	2.5141824452262
19	662	0.62	2.5140877807589
19	697	0.63	2.5139970664489
19	698	0.64	2.5139102426195
19	699	0.65	2.5138272500015
19	734	0.66	2.5137480297381
19	735	0.67	2.5136725233848
19	736	0.68	2.5136006729145
19	737	0.69	2.5135324207222
19	738	0.7	2.5134677096265
19	777	0.71	2.5134064828701
19	812	0.72	2.5133486841291
19	847	0.73	2.5132942575084
19	848	0.74	2.5132431475496
19	849	0.75	2.5131952992315
19	884	0.76	2.5131506579699
19	885	0.77	2.5131091696239
19	886	0.78	2.5130707804949
19	887	0.79	2.5130354373296
19	888	0.8	2.5130030873215
19	927	0.81	2.5129736781146
19	962	0.82	2.5129471578002
19	997	0.83	2.5129234749217
19	998	0.84	2.5129025784747
19	999	0.85	2.5128844179107
19	1034	0.86	2.5128689431333
19	1035	0.87	2.5128561045024
19	1036	0.88	2.5128458528353
19	1037	0.89	2.5128381394069
19	1038	0.9	2.512832915947
19	1077	0.91	2.5128301346466
19	1112	0.92	2.5128297481547
19	1147	0.93	2.5128317095788
19	1148	0.94	2.5128359724864
19	1149	0.95	2.5128424909035
19	1184	0.96	2.512851219315
19	1185	0.97	2.5128621126648
19	1186	0.98	2.5128751263574
19	1187	0.99	2.512890216255
19	1192	1	2.5129073386791
19	1231	1.01	2.5129264504078
19	1266	1.02	2.5129475086774
19	1301	1.03	2.5129704711822
19	1302	1.04	2.5129952960722
19	1303	1.05	2.5130219419527
19	1338	1.06	2.5130503678831
19	1339	1.07	2.5130805333772
19	1340	1.08	2.513112398403
19	1341	1.09	2.5131459233771
19	1342	1.1	2.5131810691704
19	1382	1.11	2.5132177971029
19	1417	1.12	2.5132560689416
19	1452	1.13	2.5132958468992
19	1453	1.14	2.5133370936376
19	1454	1.15	2.513379772262
19	1489	1.16	2.5134238463187
19	1490	1.17	2.5134692797977
19	1491	1.18	2.513516037126
19	1492	1.19	2.5135640831714
19	1493	1.2	2.5136133832357
19	1533	1.21	2.5136639030574
19	1568	1.22	2.513715608806
19	1603	1.23	2.5137684670832
19	1604	1.24	2.5138224449193
19	1605	1.25	2.5138775097721
19	1640	1.26	2.5139336295237
19	1641	1.27	2.5139907724794
19	1642	1.28	2.5140489073658
19	1643	1.29	2.51410800333
19	1644	1.3	2.514168029933
19	1684	1.31	2.5142289571518
19	1931	1.32	2.5142907553744
19	1966	1.33	2.5143533954006
19	1967	1.34	2.5144168484369
19	1968	1.35	2.5144810860952
19	2004	1.36	2.51454608039
19	2005	1.37	2.5146118037371
19	2006	1.38	2.5146782289501
19	2007	1.39	2.514745329238
19	2008	1.4	2.5148130782034
19	2047	1.41	2.5148814498382
19	2082	1.42	2.5149504185236
19	2117	1.43	2.5150199590256
19	2118	1.44	2.5150900464922
19	2119	1.45	2.5151606564531
19	2154	1.46	2.5152317648157
19	2155	1.47	2.5153033478602
19	2156	1.48	2.5153753822398
19	2157	1.49	2.5154478449778
19	2158	1.5	2.5155207134645
19	2197	1.51	2.5155939654531
19	2232	1.52	2.5156675790574
19	2267	1.53	2.5157415327512
19	2268	1.54	2.5158158053634
19	2269	1.55	2.5158903760752
19	2304	1.56	2.5159652244166
19	2305	1.57	2.5160403302658
19	2306	1.58	2.5161156738455
19	2307	1.59	2.5161912357187
19	2308	1.6	2.5162669967887
19	2347	1.61	2.5163429382916
19	2382	1.62	2.5164190417977
19	2417	1.63	2.5164952892074
19	2418	1.64	2.5165716627476
19	2419	1.65	2.5166481449676
19	2454	1.66	2.5167247187393
19	2455	1.67	2.5168013672521
19	2456	1.68	2.5168780740091
19	2457	1.69	2.516954822828
19	2458	1.7	2.5170315978356
19	2497	1.71	2.5171083834614
19	2532	1.72	2.5171851644423
19	2567	1.73	2.5172619258123
19	2568	1.74	2.5173386529049
19	2569	1.75	2.5174153313478
19	2604	1.76	2.5174919470581
19	2605	1.77	2.5175684862435
19	2606	1.78	2.5176449353968
19	2607	1.79	2.5177212812928
19	2608	1.8	2.5177975109863
19	2647	1.81	2.5178736118098
19	2682	1.82	2.5179495713671
19	2717	1.83	2.5180253775348
19	2718	1.84	2.5181010184563
19	2719	1.85	2.5181764825405
19	2754	1.86	2.5182517584571
19	2755	1.87	2.5183268351364
19	2756	1.88	2.5184017017654
19	2757	1.89	2.5184763477828
19	2758	1.9	2.5185507628773
19	2797	1.91	2.5186249369869
19	2832	1.92	2.5186988602934
19	2867	1.93	2.5187725232186
19	2868	1.94	2.5188459164271
19	2869	1.95	2.5189190308157
19	2904	1.96	2.5189918575164
19	2905	1.97	2.5190643878903
19	2906	1.98	2.5191366135279
19	2907	1.99	2.5192085262429
19	2912	2	2.5192801180704
19	2951	2.01	2.5193513812658
19	2986	2.02	2.5194223083003
19	3021	2.03	2.519492891859
19	3022	2.04	2.5195631248367
19	3023	2.05	2.5196330003377
19	3058	2.06	2.5197025116714
19	3059	2.07	2.5197716523493
19	3060	2.08	2.5198404160833
19	3061	2.09	2.5199087967816
19	3062	2.1	2.5199767885479
19	3101	2.11	2.5200443856778
19	3136	2.12	2.5201115826567
19	3171	2.13	2.5201783741539
19	3172	2.14	2.5202447550254
19	3173	2.15	2.520310720307
19	3208	2.16	2.520376265215
19	3209	2.17	2.5204413851408
19	3210	2.18	2.5205060756489
19	3211	2.19	2.5205703324771
19	3212	2.2	2.5206341515292
19	3251	2.21	2.5206975288775
19	3286	2.22	2.5207604607555
19	3321	2.23	2.5208229435611
19	3322	2.24	2.5208849738473
19	3323	2.25	2.5209465483267
19	3358	2.26	2.5210076638639
19	3359	2.27	2.5210683174743
19	3360	2.28	2.5211285063239
19	3361	2.29	2.521188227726
19	3362	2.3	2.5212474791356
19	3401	2.31	2.5213062581522
19	3436	2.32	2.5213645625137
19	3471	2.33	2.521422390095
19	3472	2.34	2.5214797389078
19	3473	2.35	2.5215366070949
19	3509	2.36	2.5215929929313
19	3722	2.37	2.5216488948198
19	3723	2.38	2.5217043112898
19	3724	2.39	2.5217592409936
19	3725	2.4	2.5218136827055
19	3765	2.41	2.5218676353215
19	3800	2.42	2.5219210978517
19	3835	2.43	2.5219740694251
19	3836	2.44	2.5220265492831
19	3837	2.45	2.5220785367768
19	3872	2.46	2.5221300313671
19	3873	2.47	2.5221810326226
19	3874	2.48	2.5222315402188
19	3875	2.49	2.5222815539314
19	3876	2.5	2.5223310736383
19	3915	2.51	2.5223800993179
19	3950	2.52	2.5224286310444
19	3985	2.53	2.5224766689878
19	3986	2.54	2.5225242134128
19	3987	2.55	2.5225712646737
19	4022	2.56	2.5226178232146
19	4023	2.57	2.5226638895696
19	4024	2.58	2.5227094643564
19	4025	2.59	2.5227545482795
19	4026	2.6	2.5227991421226
19	4065	2.61	2.522843246753
19	4100	2.62	2.5228868631159
19	4135	2.63	2.5229299922324
19	4136	2.64	2.5229726352013
19	4137	2.65	2.5230147931943
19	4172	2.66	2.523056467455
19	4173	2.67	2.5230976592983
19	4174	2.68	2.523138370106
19	4175	2.69	2.5231786013285
19	4176	2.7	2.5232183544817
19	4215	2.71	2.5232576311452
19	4250	2.72	2.5232964329612
19	4285	2.73	2.5233347616326
19	4286	2.74	2.5233726189218
19	4287	2.75	2.5234100066504
19	4322	2.76	2.5234469266931
19	4323	2.77	2.5234833809827
19	4324	2.78	2.5235193715051
19	4325	2.79	2.5235549002962
19	4326	2.8	2.5235899694423
19	4365	2.81	2.5236245810828
19	4400	2.82	2.5236587373996
19	4435	2.83	2.5236924406264
19	4436	2.84	2.5237256930377
19	4437	2.85	2.5237584969538
19	4472	2.86	2.5237908547358
19	4473	2.87	2.5238227687891
19	4474	2.88	2.5238542415566
19	4475	2.89	2.5238852755196
19	4476	2.9	2.523915873197
19	4515	2.91	2.5239460371457
19	4550	2.92	2.5239757699546
19	4585	2.93	2.5240050742486
19	4586	2.94	2.5240339526831
19	4587	2.95	2.5240624079486
19	4622	2.96	2.5240904427607
19	4623	2.97	2.5241180598689
19	4624	2.98	2.5241452620479
19	4625	2.99	2.5241720521
19	4630	3	2.5241984328528
19	4669	3.01	2.5242244071598
19	4704	3.02	2.5242499778986
19	4739	3.03	2.5242751479679
19	4740	3.04	2.5242999202903
19	4741	3.05	2.5243242978065
19	4776	3.06	2.524348283477
19	4777	3.07	2.5243718802844
19	4778	3.08	2.5243950912251
19	4779	3.09	2.5244179193148
19	4780	3.1	2.5244403675858
19	4819	3.11	2.5244624390819
19	4854	3.12	2.5244841368654
19	4889	3.13	2.5245054640085
19	4890	3.14	2.5245264235968
19	4891	3.15	2.5245470187281
19	4926	3.16	2.5245672525099
19	4927	3.17	2.5245871280606
19	4928	3.18	2.5246066485084
19	4929	3.19	2.5246258169875
19	4930	3.2	2.5246446366408
19	4969	3.21	2.5246631106198
19	5004	3.22	2.5246812420786
19	5039	3.23	2.5246990341788
19	5040	3.24	2.5247164900857
19	5041	3.25	2.5247336129676
19	5076	3.26	2.5247504059982
19	5077	3.27	2.5247668723522
19	5078	3.28	2.5247830152072
19	5079	3.29	2.5247988377415
19	5080	3.3	2.5248143431316
19	5119	3.31	2.5248295345579
19	5154	3.32	2.5248444151958
19	5189	3.33	2.5248589882232
19	5190	3.34	2.5248732568131
19	5191	3.35	2.5248872241391
19	5226	3.36	2.5249008933685
19	5227	3.37	2.5249142676648
19	5228	3.38	2.5249273501911
19	5229	3.39	2.524940144102
19	5230	3.4	2.5249526525473
19	5270	3.41	2.524964878673
19	5561	3.42	2.5249768256167
19	5596	3.43	2.5249884965112
19	5597	3.44	2.5249998944793
19	5598	3.45	2.5250110226385
19	5634	3.46	2.5250218840982
19	5635	3.47	2.5250324819565
19	5636	3.48	2.5250428193046
19	5637	3.49	2.5250528992241
19	5638	3.5	2.5250627247865
19	5677	3.51	2.5250722990507
19	5712	3.52	2.5250816250686
19	5747	3.53	2.5250907058794
19	5748	3.54	2.5250995445091
19	5749	3.55	2.5251081439742
19	5784	3.56	2.525116507278
19	5785	3.57	2.5251246374109
19	5786	3.58	2.5251325373505
19	5787	3.59	2.5251402100628
19	5788	3.6	2.5251476584965
19	5827	3.61	2.52515488559
19	5862	3.62	2.5251618942677
19	5897	3.63	2.5251686874359
19	5898	3.64	2.5251752679884
19	5899	3.65	2.5251816388056
19	5934	3.66	2.525187802749
19	5935	3.67	2.5251937626671
19	5936	3.68	2.5251995213906
19	5937	3.69	2.5252050817374
19	5938	3.7	2.5252104465062
19	5977	3.71	2.5252156184793
19	6012	3.72	2.5252206004234
19	6047	3.73	2.5252253950871
19	6048	3.74	2.525230005203
19	6049	3.75	2.5252344334847
19	6084	3.76	2.5252386826311
19	6085	3.77	2.52524275532
19	6086	3.78	2.5252466542136
19	6087	3.79	2.5252503819546
19	6088	3.8	2.5252539411679
19	6127	3.81	2.5252573344608
19	6162	3.82	2.5252605644199
19	6197	3.83	2.5252636336155
19	6198	3.84	2.5252665445986
19	6199	3.85	2.5252692998996
19	6234	3.86	2.5252719020308
19	6235	3.87	2.5252743534857
19	6236	3.88	2.525276656738
19	6237	3.89	2.5252788142408
19	6238	3.9	2.5252808284311
19	6277	3.91	2.5252827017233
19	6312	3.92	2.525284436511
19	6347	3.93	2.5252860351716
19	6348	3.94	2.5252875000599
19	6349	3.95	2.5252888335133
19	6384	3.96	2.5252900378447
19	6385	3.97	2.5252911153528
19	6386	3.98	2.5252920683103
19	6387	3.99	2.5252928989739
19	6392	4	2.5252936095779
19	6431	4.01	2.5252942023385
19	6466	4.02	2.5252946794495
19	6501	4.03	2.525295043084
19	6502	4.04	2.525295295397
19	6503	4.05	2.525295438521
19	6538	4.06	2.5252954745677
19	6539	4.07	2.5252954056309
19	6540	4.08	2.5252952337832
19	6541	4.09	2.5252949610749
19	6542	4.1	2.5252945895384
19	6581	4.11	2.5252941211835
19	6616	4.12	2.5252935580006
19	6651	4.13	2.525292901959
19	6652	4.14	2.5252921550086
19	6653	4.15	2.5252913190782
19	6688	4.16	2.5252903960773
19	6689	4.17	2.5252893878927
19	6690	4.18	2.5252882963932
19	6691	4.19	2.5252871234251
19	6692	4.2	2.5252858708168
19	6731	4.21	2.5252845403755
19	6766	4.22	2.5252831338889
19	6801	4.23	2.5252816531236
19	6802	4.24	2.5252800998254
19	6803	4.25	2.5252784757217
19	6838	4.26	2.5252767825191
19	6839	4.27	2.5252750219045
19	6840	4.28	2.5252731955453
19	6841	4.29	2.5252713050878
19	6842	4.3	2.5252693521603
19	6881	4.31	2.5252673383698
19	6916	4.32	2.5252652653055
19	6951	4.33	2.5252631345353
19	6952	4.34	2.5252609476091
19	6953	4.35	2.5252587060558
19	6988	4.36	2.5252564113874
19	6989	4.37	2.5252540650951
19	6990	4.38	2.5252516686504
19	6991	4.39	2.5252492235065
19	6992	4.4	2.5252467310989
19	7031	4.41	2.5252441928415
19	7066	4.42	2.5252416101319
19	7101	4.43	2.5252389843481
19	7102	4.44	2.5252363168481
19	7103	4.45	2.5252336089753
19	7139	4.46	2.5252308620516
19	7352	4.47	2.5252280773809
19	7353	4.48	2.5252252562488
19	7354	4.49	2.5252223999229
19	7355	4.5	2.5252195096543
19	7395	4.51	2.5252165866756
19	7430	4.52	2.5252136322016
19	7465	4.53	2.5252106474287
19	7466	4.54	2.5252076335353
19	7467	4.55	2.5252045916846
19	7502	4.56	2.5252015230201
19	7503	4.57	2.5251984286701
19	7504	4.58	2.5251953097449
19	7505	4.59	2.525192167338
19	7506	4.6	2.5251890025247
19	7545	4.61	2.525185816367
19	7580	4.62	2.5251826099066
19	7615	4.63	2.5251793841706
19	7616	4.64	2.5251761401691
19	7617	4.65	2.5251728788972
19	7652	4.66	2.5251696013332
19	7653	4.67	2.5251663084389
19	7654	4.68	2.5251630011591
19	7655	4.69	2.5251596804252
19	7656	4.7	2.5251563471535
19	7695	4.71	2.5251530022418
19	7730	4.72	2.5251496465744
19	7765	4.73	2.5251462810205
19	7766	4.74	2.5251429064338
19	7767	4.75	2.5251395236533
19	7802	4.76	2.525136133504
19	7803	4.77	2.5251327367926
19	7804	4.78	2.5251293343154
19	7805	4.79	2.5251259268533
19	7806	4.8	2.5251225151707
19	7845	4.81	2.5251191000197
19	7880	4.82	2.5251156821386
19	7915	4.83	2.5251122622508
19	7916	4.84	2.5251088410658
19	7917	4.85	2.5251054192793
19	7952	4.86	2.5251019975751
19	7953	4.87	2.5250985766216
19	7954	4.88	2.5250951570767
19	7955	4.89	2.5250917395813
19	7956	4.9	2.5250883247659
19	7995	4.91	2.5250849132472
19	8030	4.92	2.5250815056297
19	8065	4.93	2.5250781025057
19	8066	4.94	2.5250747044538
19	8067	4.95	2.525071312042
19	8102	4.96	2.525067925823
19	8103	4.97	2.5250645463403
19	8104	4.98	2.5250611741254
19	8105	4.99	2.5250578096958
19	8110	5	2.5250544535586
19	8149	5.01	2.5250511062084
19	8184	5.02	2.525047768131
19	8219	5.03	2.5250444397981
19	8220	5.04	2.5250411216711
19	8221	5.05	2.5250378142019
19	8256	5.06	2.5250345178288
19	8257	5.07	2.525031232981
19	8258	5.08	2.5250279600755
19	8259	5.09	2.5250246995214
19	8260	5.1	2.5250214517144
19	8299	5.11	2.5250182170423
19	8334	5.12	2.5250149958824
19	8369	5.13	2.5250117886011
19	8370	5.14	2.5250085955544
19	8371	5.15	2.5250054170887
19	8406	5.16	2.5250022535431
19	8407	5.17	2.5249991052444
19	8408	5.18	2.5249959725116
19	8409	5.19	2.5249928556532
19	8410	5.2	2.5249897549683
19	8449	5.21	2.5249866707485
19	8484	5.22	2.5249836032763
19	8519	5.23	2.5249805528247
19	8520	5.24	2.5249775196562
19	8521	5.25	2.5249745040288
19	8556	5.26	2.5249715061895
19	8557	5.27	2.5249685263764
19	8558	5.28	2.5249655648212
19	8559	5.29	2.5249626217465
19	8560	5.3	2.5249596973659
19	8599	5.31	2.5249567918881
19	8634	5.32	2.5249539055112
19	8669	5.33	2.5249510384271
19	8670	5.34	2.5249481908187
19	8671	5.35	2.5249453628625
19	8706	5.36	2.524942554729
19	8707	5.37	2.5249397665794
19	8708	5.38	2.5249369985674
19	8709	5.39	2.5249342508419
19	8710	5.4	2.5249315235441
19	8749	5.41	2.5249288168092
19	8784	5.42	2.5249261307632
19	8819	5.43	2.5249234655274
19	8820	5.44	2.5249208212168
19	8821	5.45	2.524918197939
19	8856	5.46	2.5249155957968
19	8857	5.47	2.5249130148853
19	8858	5.48	2.5249104552937
19	8859	5.49	2.5249079171076
19	8860	5.5	2.524905400404
19	8900	5.51	2.5249029052547
19	9147	5.52	2.5249004317258
19	9182	5.53	2.5248979798799
19	9183	5.54	2.5248955497723
19	9184	5.55	2.5248931414534
19	9220	5.56	2.5248907549675
19	9221	5.57	2.5248883903542
19	9222	5.58	2.5248860476487
19	9223	5.59	2.5248837268813
19	9224	5.6	2.5248814280763
19	9263	5.61	2.5248791512533
19	9298	5.62	2.5248768964288
19	9333	5.63	2.5248746636132
19	9334	5.64	2.5248724528121
19	9335	5.65	2.5248702640281
19	9370	5.66	2.5248680972593
19	9371	5.67	2.5248659524973
19	9372	5.68	2.5248638297325
19	9373	5.69	2.5248617289488
19	9374	5.7	2.5248596501271
19	9413	5.71	2.5248575932453
19	9448	5.72	2.5248555582766
19	9483	5.73	2.5248535451896
19	9484	5.74	2.5248515539495
19	9485	5.75	2.5248495845203
19	9520	5.76	2.5248476368582
19	9521	5.77	2.5248457109192
19	9522	5.78	2.5248438066563
19	9523	5.79	2.5248419240163
19	9524	5.8	2.5248400629444
19	9563	5.81	2.5248382233828
19	9598	5.82	2.5248364052704
19	9633	5.83	2.5248346085447
19	9634	5.84	2.5248328331369
19	9635	5.85	2.5248310789767
19	9670	5.86	2.524829345992
19	9671	5.87	2.524827634108
19	9672	5.88	2.5248259432464
19	9673	5.89	2.524824273326
19	9674	5.9	2.5248226242655
19	9713	5.91	2.5248209959773
19	9748	5.92	2.5248193883738
19	9783	5.93	2.5248178013646
19	9784	5.94	2.5248162348572
19	9785	5.95	2.5248146887563
19	9820	5.96	2.5248131629649
19	9821	5.97	2.5248116573846
19	9822	5.98	2.5248101719152
19	9823	5.99	2.524808706452
19	9828	6	2.52480726089
19	9867	6.01	2.524805835123
19	9902	6.02	2.5248044290429
19	9937	6.03	2.5248030425386
19	9938	6.04	2.524801675499
19	9939	6.05	2.5248003278098
19	9974	6.06	2.5247989993566
19	9975	6.07	2.5247976900221
19	9976	6.08	2.5247963996871
19	9977	6.09	2.5247951282342
19	9978	6.1	2.5247938755411
19	10017	6.11	2.5247926414856
19	10052	6.12	2.5247914259439
19	10087	6.13	2.5247902287921
19	10088	6.14	2.5247890499046
19	10089	6.15	2.5247878891546
19	10124	6.16	2.5247867464132
19	10125	6.17	2.5247856215519
19	10126	6.18	2.5247845144403
19	10127	6.19	2.5247834249466
19	10128	6.2	2.5247823529405
19	10167	6.21	2.5247812982884
19	10202	6.22	2.5247802608567
19	10237	6.23	2.524779240512
19	10238	6.24	2.524778237119
19	10239	6.25	2.5247772505425
19	10274	6.26	2.5247762806457
19	10275	6.27	2.5247753272917
19	10276	6.28	2.5247743903421
19	10277	6.29	2.5247734696599
19	10278	6.3	2.5247725651081
19	10317	6.31	2.5247716765451
19	10352	6.32	2.5247708038338
19	10387	6.33	2.5247699468338
19	10388	6.34	2.5247691054051
19	10389	6.35	2.5247682794072
19	10424	6.36	2.5247674686982
19	10425	6.37	2.5247666731393
19	10426	6.38	2.5247658925885
19	10427	6.39	2.5247651269052
19	10428	6.4	2.5247643759474
19	10467	6.41	2.5247636395729
19	10502	6.42	2.5247629176411
19	10537	6.43	2.5247622100113
19	10538	6.44	2.5247615165397
19	10539	6.45	2.5247608370869
19	10574	6.46	2.5247601715092
19	10575	6.47	2.5247595196671
19	10576	6.48	2.5247588814167
19	10577	6.49	2.5247582566185
19	10578	6.5	2.5247576451299
19	10617	6.51	2.5247570468115
19	10652	6.52	2.5247564615206
19	10687	6.53	2.5247558891176
19	10688	6.54	2.5247553294613
19	10689	6.55	2.524754782412
19	10725	6.56	2.5247542478299
19	10982	6.57	2.5247537255752
19	10983	6.58	2.5247532155097
19	10984	6.59	2.5247527174934
19	10985	6.6	2.5247522313865
19	11025	6.61	2.5247517570521
19	11060	6.62	2.5247512943532
19	11095	6.63	2.5247508431513
19	11096	6.64	2.5247504033093
19	11097	6.65	2.5247499746904
19	11132	6.66	2.5247495571587
19	11133	6.67	2.5247491505789
19	11134	6.68	2.5247487548167
19	11135	6.69	2.5247483697365
19	11136	6.7	2.5247479952056
19	11175	6.71	2.5247476310898
19	11210	6.72	2.5247472772564
19	11245	6.73	2.5247469335725
19	11246	6.74	2.524746599907
19	11247	6.75	2.52474627613
19	11282	6.76	2.5247459621102
19	11283	6.77	2.5247456577177
19	11284	6.78	2.5247453628227
19	11285	6.79	2.5247450772983
19	11286	6.8	2.524744801016
19	11325	6.81	2.5247445338474
19	11360	6.82	2.5247442756686
19	11395	6.83	2.5247440263526
19	11396	6.84	2.5247437857739
19	11397	6.85	2.5247435538101
19	11432	6.86	2.524743330337
19	11433	6.87	2.5247431152322
19	11434	6.88	2.5247429083731
19	11435	6.89	2.5247427096387
19	11436	6.9	2.5247425189093
19	11475	6.91	2.5247423360638
19	11510	6.92	2.5247421609856
19	11545	6.93	2.5247419935552
19	11546	6.94	2.5247418336558
19	11547	6.95	2.5247416811709
19	11582	6.96	2.5247415359852
19	11583	6.97	2.5247413979852
19	11584	6.98	2.5247412670555
19	11585	6.99	2.524741143084
19	11590	7	2.5247410259586
19	11629	7.01	2.5247409155669
19	11664	7.02	2.5247408117998
19	11699	7.03	2.5247407145481
19	11700	7.04	2.5247406237009
19	11701	7.05	2.5247405391521
19	11736	7.06	2.5247404607954
19	11737	7.07	2.524740388523
19	11738	7.08	2.5247403222317
19	11739	7.09	2.5247402618151
19	11740	7.1	2.5247402071716
19	11779	7.11	2.5247401581977
19	11814	7.12	2.5247401147918
19	11849	7.13	2.5247400768535
19	11850	7.14	2.524740044284
19	11851	7.15	2.524740016983
19	11886	7.16	2.5247399948532
19	11887	7.17	2.5247399777973
19	11888	7.18	2.5247399657195
19	11889	7.19	2.5247399585238
19	11890	7.2	2.5247399561177
19	11929	7.21	2.5247399584051
19	11964	7.22	2.5247399652963
19	11999	7.23	2.5247399766969
19	12000	7.24	2.5247399925187
19	12001	7.25	2.5247400126702
19	12036	7.26	2.5247400370631
19	12037	7.27	2.5247400656092
19	12038	7.28	2.524740098223
19	12039	7.29	2.5247401348163
19	12040	7.3	2.5247401753052
19	12079	7.31	2.5247402196044
19	12114	7.32	2.5247402676315
19	12149	7.33	2.5247403193043
19	12150	7.34	2.5247403745403
19	12151	7.35	2.5247404332589
19	12186	7.36	2.524740495379
19	12187	7.37	2.5247405608229
19	12188	7.38	2.5247406295128
19	12189	7.39	2.5247407013724
19	12190	7.4	2.5247407763238
19	12229	7.41	2.5247408542938
19	12264	7.42	2.5247409352061
19	12299	7.43	2.5247410189872
19	12300	7.44	2.5247411055654
19	12301	7.45	2.5247411948675
19	12336	7.46	2.524741286823
19	12337	7.47	2.5247413813633
19	12338	7.48	2.5247414784181
19	12339	7.49	2.5247415779184
19	12340	7.5	2.5247416797971
19	12379	7.51	2.5247417839885
19	12414	7.52	2.5247418904266
19	12449	7.53	2.5247419990459
19	12450	7.54	2.5247421097818
19	12451	7.55	2.5247422225734
19	12486	7.56	2.5247423373563
19	12487	7.57	2.5247424540691
19	12488	7.58	2.5247425726508
19	12489	7.59	2.5247426930431
19	12490	7.6	2.5247428151847
19	12530	7.61	2.5247429390189
19	12777	7.62	2.5247430644876
19	12812	7.63	2.5247431915339
19	12813	7.64	2.5247433201027
19	12814	7.65	2.5247434501388
19	12850	7.66	2.5247435815886
19	12851	7.67	2.5247437143968
19	12852	7.68	2.5247438485128
19	12853	7.69	2.5247439838828
19	12854	7.7	2.5247441204562
19	12893	7.71	2.524744258184
19	12928	7.72	2.5247443970153
19	12963	7.73	2.5247445369012
19	12964	7.74	2.5247446777939
19	12965	7.75	2.5247448196458
19	13000	7.76	2.5247449624093
19	13001	7.77	2.5247451060398
19	13002	7.78	2.5247452504928
19	13003	7.79	2.524745395722
19	13004	7.8	2.5247455416859
19	13043	7.81	2.52474568834
19	13078	7.82	2.5247458356411
19	13113	7.83	2.5247459835492
[...]
2	64366	55.23	931.55726268403
2	64367	55.24	931.69615168374
2	64368	55.25	931.83504068346
2	64387	55.26	931.97392968317
2	64388	55.27	932.11281868289
2	64389	55.28	932.2517076826
2	64390	55.29	932.39059668231
2	64391	55.3	932.52948568203
2	64394	55.31	932.66837468175
2	64395	55.32	932.80726368146
2	64414	55.33	932.94615268118
2	64415	55.34	933.0850416809
2	64416	55.35	933.22393068061
2	64435	55.36	933.36281968033
2	64436	55.37	933.50170868005
2	64437	55.38	933.64059767977
2	64438	55.39	933.77948667949
2	64439	55.4	933.91837567921
2	64442	55.41	934.05726467893
2	64443	55.42	934.19615367865
2	64462	55.43	934.33504267837
2	64463	55.44	934.47393167809
2	64464	55.45	934.61282067782
2	64483	55.46	934.75170967754
2	64484	55.47	934.89059867726
2	64485	55.48	935.02948767698
2	64486	55.49	935.16837667671
2	64487	55.5	935.30726567643
2	64490	55.51	935.44615467616
2	64491	55.52	935.58504367588
2	64510	55.53	935.72393267561
2	64511	55.54	935.86282167533
2	64512	55.55	936.00171067506
2	64531	55.56	936.14059967479
2	64532	55.57	936.27948867451
2	64533	55.58	936.41837767424
2	64534	55.59	936.55726667397
2	64535	55.6	936.6961556737
2	64538	55.61	936.83504467343
2	64539	55.62	936.97393367316
2	64558	55.63	937.11282267289
2	64559	55.64	937.25171167262
2	64560	55.65	937.39060067235
2	64579	55.66	937.52948967208
2	64580	55.67	937.66837867181
2	64581	55.68	937.80726767154
2	64582	55.69	937.94615667127
2	64583	55.7	938.08504567101
2	64586	55.71	938.22393467074
2	64587	55.72	938.36282367047
2	64606	55.73	938.50171267021
2	64607	55.74	938.64060166994
2	64608	55.75	938.77949066968
2	64627	55.76	938.91837966941
2	64628	55.77	939.05726866915
2	64629	55.78	939.19615766888
2	64630	55.79	939.33504666862
2	64631	55.8	939.47393566836
2	64634	55.81	939.61282466809
2	64635	55.82	939.75171366783
2	64654	55.83	939.89060266757
2	64655	55.84	940.02949166731
2	64656	55.85	940.16838066705
2	64675	55.86	940.30726966679
2	64676	55.87	940.44615866653
2	64677	55.88	940.58504766627
2	64678	55.89	940.72393666601
2	64679	55.9	940.86282566575
2	64682	55.91	941.00171466549
2	64683	55.92	941.14060366523
2	64702	55.93	941.27949266497
2	64703	55.94	941.41838166472
2	64704	55.95	941.55727066446
2	64723	55.96	941.6961596642
2	64724	55.97	941.83504866395
2	64725	55.98	941.97393766369
2	64726	55.99	942.11282666343
2	64729	56	942.25171566318
2	64732	56.01	942.39060466292
2	64733	56.02	942.52949366267
2	64752	56.03	942.66838266242
2	64753	56.04	942.80727166216
2	64754	56.05	942.94616066191
2	64773	56.06	943.08504966166
2	64774	56.07	943.2239386614
2	64775	56.08	943.36282766115
2	64776	56.09	943.5017166609
2	64777	56.1	943.64060566065
2	64780	56.11	943.7794946604
2	64781	56.12	943.91838366015
2	64800	56.13	944.0572726599
2	64801	56.14	944.19616165965
2	64802	56.15	944.3350506594
2	64821	56.16	944.47393965915
2	64822	56.17	944.6128286589
2	64823	56.18	944.75171765866
2	64824	56.19	944.89060665841
2	64825	56.2	945.02949565816
2	64828	56.21	945.16838465791
2	64829	56.22	945.30727365767
2	64848	56.23	945.44616265742
2	64849	56.24	945.58505165718
2	64850	56.25	945.72394065693
2	64869	56.26	945.86282965669
2	64870	56.27	946.00171865644
2	64871	56.28	946.1406076562
2	64872	56.29	946.27949665595
2	64873	56.3	946.41838565571
2	64876	56.31	946.55727465547
2	64877	56.32	946.69616365522
2	64896	56.33	946.83505265498
2	64897	56.34	946.97394165474
2	64898	56.35	947.1128306545
2	64917	56.36	947.25171965426
2	64918	56.37	947.39060865402
2	64919	56.38	947.52949765378
2	64920	56.39	947.66838665354
2	64921	56.4	947.8072756533
2	64924	56.41	947.94616465306
2	64925	56.42	948.08505365282
2	64944	56.43	948.22394265258
2	64945	56.44	948.36283165234
2	64946	56.45	948.5017206521
2	64965	56.46	948.64060965187
2	64966	56.47	948.77949865163
2	64967	56.48	948.91838765139
2	64968	56.49	949.05727665116
2	64969	56.5	949.19616565092
2	64972	56.51	949.33505465069
2	64973	56.52	949.47394365045
2	64992	56.53	949.61283265022
2	64993	56.54	949.75172164998
2	64994	56.55	949.89061064975
2	65013	56.56	950.02949964951
2	65014	56.57	950.16838864928
2	65015	56.58	950.30727764905
2	65016	56.59	950.44616664881
2	65017	56.6	950.58505564858
2	65020	56.61	950.72394464835
2	65021	56.62	950.86283364812
2	65040	56.63	951.00172264789
2	65041	56.64	951.14061164766
2	65042	56.65	951.27950064743
2	65061	56.66	951.4183896472
2	65062	56.67	951.55727864697
2	65063	56.68	951.69616764674
2	65064	56.69	951.83505664651
2	65065	56.7	951.97394564628
2	65068	56.71	952.11283464605
2	65069	56.72	952.25172364582
2	65088	56.73	952.3906126456
2	65089	56.74	952.52950164537
2	65090	56.75	952.66839064514
2	65109	56.76	952.80727964491
2	65110	56.77	952.94616864469
2	65111	56.78	953.08505764446
2	65112	56.79	953.22394664424
2	65113	56.8	953.36283564401
2	65116	56.81	953.50172464379
2	65117	56.82	953.64061364356
2	65136	56.83	953.77950264334
2	65137	56.84	953.91839164312
2	65138	56.85	954.05728064289
2	65157	56.86	954.19616964267
2	65158	56.87	954.33505864245
2	65159	56.88	954.47394764222
2	65160	56.89	954.612836642
2	65161	56.9	954.75172564178
2	65164	56.91	954.89061464156
2	65165	56.92	955.02950364134
2	65184	56.93	955.16839264112
2	65185	56.94	955.3072816409
2	65186	56.95	955.44617064068
2	65205	56.96	955.58505964046
2	65206	56.97	955.72394864024
2	65207	56.98	955.86283764002
2	65208	56.99	956.0017266398
2	65211	57	956.14061563958
2	65214	57.01	956.27950463937
2	65215	57.02	956.41839363915
2	65234	57.03	956.55728263893
2	65235	57.04	956.69617163871
2	65236	57.05	956.8350606385
2	65255	57.06	956.97394963828
2	65256	57.07	957.11283863806
2	65257	57.08	957.25172763785
2	65258	57.09	957.39061663763
2	65259	57.1	957.52950563742
2	65262	57.11	957.66839463721
2	65263	57.12	957.80728363699
2	65282	57.13	957.94617263678
2	65283	57.14	958.08506163656
2	65284	57.15	958.22395063635
2	65303	57.16	958.36283963614
2	65304	57.17	958.50172863593
2	65305	57.18	958.64061763571
2	65306	57.19	958.7795066355
2	65307	57.2	958.91839563529
2	65310	57.21	959.05728463508
2	65311	57.22	959.19617363487
2	65330	57.23	959.33506263466
2	65331	57.24	959.47395163445
2	65332	57.25	959.61284063424
2	65351	57.26	959.75172963403
2	65352	57.27	959.89061863382
2	65353	57.28	960.02950763361
2	65354	57.29	960.1683966334
2	65355	57.3	960.30728563319
2	65358	57.31	960.44617463299
2	65359	57.32	960.58506363278
2	65378	57.33	960.72395263257
2	65379	57.34	960.86284163236
2	65380	57.35	961.00173063216
2	65399	57.36	961.14061963195
2	65400	57.37	961.27950863174
2	65401	57.38	961.41839763154
2	65402	57.39	961.55728663133
2	65403	57.4	961.69617563113
2	65406	57.41	961.83506463092
2	65407	57.42	961.97395363072
2	65426	57.43	962.11284263052
2	65427	57.44	962.25173163031
2	65428	57.45	962.39062063011
2	65447	57.46	962.52950962991
2	65448	57.47	962.6683986297
2	65449	57.48	962.8072876295
2	65450	57.49	962.9461766293
2	65451	57.5	963.0850656291
2	65454	57.51	963.22395462889
2	65455	57.52	963.36284362869
2	65474	57.53	963.50173262849
2	65475	57.54	963.64062162829
2	65476	57.55	963.77951062809
2	65495	57.56	963.91839962789
2	65496	57.57	964.05728862769
2	65497	57.58	964.19617762749
2	65498	57.59	964.33506662729
2	65499	57.6	964.4739556271
2	65502	57.61	964.6128446269
2	65503	57.62	964.7517336267
2	65522	57.63	964.8906226265
2	65523	57.64	965.0295116263
2	65524	57.65	965.16840062611
2	65543	57.66	965.30728962591
2	65544	57.67	965.44617862571
2	65545	57.68	965.58506762552
2	65546	57.69	965.72395662532
2	65547	57.7	965.86284562513
2	65550	57.71	966.00173462493
2	65551	57.72	966.14062362474
2	65570	57.73	966.27951262454
2	65571	57.74	966.41840162435
2	65572	57.75	966.55729062415
2	65591	57.76	966.69617962396
2	65592	57.77	966.83506862377
2	65593	57.78	966.97395762357
2	65594	57.79	967.11284662338
2	65595	57.8	967.25173562319
2	65598	57.81	967.39062462299
2	65599	57.82	967.5295136228
2	65618	57.83	967.66840262261
2	65619	57.84	967.80729162242
2	65620	57.85	967.94618062223
2	65639	57.86	968.08506962204
2	65640	57.87	968.22395862185
2	65641	57.88	968.36284762166
2	65642	57.89	968.50173662147
2	65643	57.9	968.64062562128
2	65646	57.91	968.77951462109
2	65647	57.92	968.9184036209
2	65666	57.93	969.05729262071
2	65667	57.94	969.19618162052
2	65668	57.95	969.33507062033
2	65687	57.96	969.47395962015
2	65688	57.97	969.61284861996
2	65689	57.98	969.75173761977
2	65690	57.99	969.89062661958
2	65693	58	970.0295156194
2	65696	58.01	970.16840461921
2	65697	58.02	970.30729361903
2	65716	58.03	970.44618261884
2	65717	58.04	970.58507161865
2	65718	58.05	970.72396061847
2	65737	58.06	970.86284961828
2	65738	58.07	971.0017386181
2	65739	58.08	971.14062761791
2	65740	58.09	971.27951661773
2	65741	58.1	971.41840561755
2	65744	58.11	971.55729461736
2	65745	58.12	971.69618361718
2	65764	58.13	971.835072617
2	65765	58.14	971.97396161681
2	65766	58.15	972.11285061663
2	65785	58.16	972.25173961645
2	65786	58.17	972.39062861627
2	65787	58.18	972.52951761609
2	65788	58.19	972.66840661591
2	65789	58.2	972.80729561573
2	65792	58.21	972.94618461554
2	65793	58.22	973.08507361536
2	65812	58.23	973.22396261518
2	65813	58.24	973.362851615
2	65814	58.25	973.50174061482
2	65833	58.26	973.64062961465
2	65834	58.27	973.77951861447
2	65835	58.28	973.91840761429
2	65836	58.29	974.05729661411
2	65837	58.3	974.19618561393
2	65840	58.31	974.33507461375
2	65841	58.32	974.47396361358
2	65860	58.33	974.6128526134
2	65861	58.34	974.75174161322
2	65862	58.35	974.89063061304
2	65881	58.36	975.02951961287
2	65882	58.37	975.16840861269
2	65883	58.38	975.30729761252
2	65884	58.39	975.44618661234
2	65885	58.4	975.58507561217
2	65888	58.41	975.72396461199
2	65889	58.42	975.86285361182
2	65908	58.43	976.00174261164
2	65909	58.44	976.14063161147
2	65910	58.45	976.27952061129
2	65929	58.46	976.41840961112
2	65930	58.47	976.55729861095
2	65931	58.48	976.69618761077
2	65932	58.49	976.8350766106
2	65933	58.5	976.97396561043
2	65936	58.51	977.11285461025
2	65937	58.52	977.25174361008
2	65956	58.53	977.39063260991
2	65957	58.54	977.52952160974
2	65958	58.55	977.66841060957
2	65977	58.56	977.8072996094
2	65978	58.57	977.94618860923
2	65979	58.58	978.08507760906
2	65980	58.59	978.22396660889
2	65981	58.6	978.36285560872
2	65984	58.61	978.50174460855
2	65985	58.62	978.64063360838
2	66004	58.63	978.77952260821
2	66005	58.64	978.91841160804
2	66006	58.65	979.05730060787
2	66025	58.66	979.1961896077
2	66026	58.67	979.33507860753
2	66027	58.68	979.47396760736
2	66028	58.69	979.6128566072
2	66029	58.7	979.75174560703
2	66032	58.71	979.89063460686
2	66033	58.72	980.0295236067
2	66052	58.73	980.16841260653
2	66053	58.74	980.30730160636
2	66054	58.75	980.4461906062
2	66073	58.76	980.58507960603
2	66074	58.77	980.72396860587
2	66075	58.78	980.8628576057
2	66076	58.79	981.00174660554
2	66077	58.8	981.14063560537
2	66080	58.81	981.27952460521
2	66081	58.82	981.41841360504
2	66100	58.83	981.55730260488
2	66101	58.84	981.69619160471
2	66102	58.85	981.83508060455
2	66121	58.86	981.97396960439
2	66122	58.87	982.11285860422
2	66123	58.88	982.25174760406
2	66124	58.89	982.3906366039
2	66125	58.9	982.52952560374
2	66128	58.91	982.66841460358
2	66129	58.92	982.80730360341
2	66148	58.93	982.94619260325
2	66149	58.94	983.08508160309
2	66150	58.95	983.22397060293
2	66169	58.96	983.36285960277
2	66170	58.97	983.50174860261
2	66171	58.98	983.64063760245
2	66172	58.99	983.77952660229
2	66175	59	983.91841560213
2	66178	59.01	984.05730460197
2	66179	59.02	984.19619360181
2	66198	59.03	984.33508260165
2	66199	59.04	984.47397160149
2	66200	59.05	984.61286060133
2	66219	59.06	984.75174960118
2	66220	59.07	984.89063860102
2	66221	59.08	985.02952760086
2	66222	59.09	985.1684166007
2	66223	59.1	985.30730560055
2	66226	59.11	985.44619460039
2	66227	59.12	985.58508360023
2	66246	59.13	985.72397260008
2	66247	59.14	985.86286159992
2	66248	59.15	986.00175059976
2	66267	59.16	986.14063959961
2	66268	59.17	986.27952859945
2	66269	59.18	986.4184175993
2	66270	59.19	986.55730659914
2	66271	59.2	986.69619559899
2	66274	59.21	986.83508459883
2	66275	59.22	986.97397359868
2	66294	59.23	987.11286259852
2	66295	59.24	987.25175159837
2	66296	59.25	987.39064059822
2	66315	59.26	987.52952959806
2	66316	59.27	987.66841859791
2	66317	59.28	987.80730759776
2	66318	59.29	987.94619659761
2	66319	59.3	988.08508559745
2	66322	59.31	988.2239745973
2	66323	59.32	988.36286359715
2	66342	59.33	988.501752597
2	66343	59.34	988.64064159685
2	66344	59.35	988.77953059669
2	66363	59.36	988.91841959654
2	66364	59.37	989.05730859639
2	66365	59.38	989.19619759624
2	66366	59.39	989.33508659609
2	66367	59.4	989.47397559594
2	66370	59.41	989.61286459579
2	66371	59.42	989.75175359564
2	66390	59.43	989.89064259549
2	66391	59.44	990.02953159534
2	66392	59.45	990.1684205952
2	66411	59.46	990.30730959505
2	66412	59.47	990.4461985949
2	66413	59.48	990.58508759475
2	66414	59.49	990.7239765946
2	66415	59.5	990.86286559446
2	66418	59.51	991.00175459431
2	66419	59.52	991.14064359416
2	66438	59.53	991.27953259401
2	66439	59.54	991.41842159387
2	66440	59.55	991.55731059372
2	66459	59.56	991.69619959357
2	66460	59.57	991.83508859343
2	66461	59.58	991.97397759328
2	66462	59.59	992.11286659314
2	66463	59.6	992.25175559299
2	66466	59.61	992.39064459285
2	66467	59.62	992.5295335927
2	66486	59.63	992.66842259256
2	66487	59.64	992.80731159241
2	66488	59.65	992.94620059227
2	66507	59.66	993.08508959212
2	66508	59.67	993.22397859198
2	66509	59.68	993.36286759183
2	66510	59.69	993.50175659169
2	66511	59.7	993.64064559155
2	66514	59.71	993.77953459141
2	66515	59.72	993.91842359126
2	66534	59.73	994.05731259112
2	66535	59.74	994.19620159098
2	66536	59.75	994.33509059084
2	66555	59.76	994.47397959069
2	66556	59.77	994.61286859055
2	66557	59.78	994.75175759041
2	66558	59.79	994.89064659027
2	66559	59.8	995.02953559013
2	66562	59.81	995.16842458999
2	66563	59.82	995.30731358985
2	66582	59.83	995.44620258971
2	66583	59.84	995.58509158957
2	66584	59.85	995.72398058943
2	66603	59.86	995.86286958929
2	66604	59.87	996.00175858915
2	66605	59.88	996.14064758901
2	66606	59.89	996.27953658887
2	66607	59.9	996.41842558873
2	66610	59.91	996.55731458859
2	66611	59.92	996.69620358845
2	66630	59.93	996.83509258832
2	66631	59.94	996.97398158818
2	66632	59.95	997.11287058804
2	66651	59.96	997.2517595879
2	66652	59.97	997.39064858777
2	66653	59.98	997.52953758763
2	66654	59.99	997.66842658749
2	66657	60	997.80731558736
2	66660	60.01	997.94620458722
2	66661	60.02	998.08509358708
2	66680	60.03	998.22398258695
2	66681	60.04	998.36287158681
2	66682	60.05	998.50176058668
2	66701	60.06	998.64064958654
2	66702	60.07	998.77953858641
2	66703	60.08	998.91842758627
2	66704	60.09	999.05731658614
2	66705	60.1	999.196205586
2	66708	60.11	999.33509458587
2	66709	60.12	999.47398358573
2	66728	60.13	999.6128725856
2	66729	60.14	999.75176158547
2	66730	60.15	999.89065058533
2	66749	60.16	1000.0295395852
2	66750	60.17	1000.1684285851
2	66751	60.18	1000.3073175849
2	66752	60.19	1000.4462065848
2	66753	60.2	1000.5850955847
2	66756	60.21	1000.7239845845
2	66757	60.22	1000.8628735844
2	66776	60.23	1001.0017625843
2	66777	60.24	1001.1406515841
2	66778	60.25	1001.279540584
2	66797	60.26	1001.4184295839
2	66798	60.27	1001.5573185837
2	66799	60.28	1001.6962075836
2	66800	60.29	1001.8350965835
2	66801	60.3	1001.9739855834
2	66804	60.31	1002.1128745832
2	66805	60.32	1002.2517635831
2	66824	60.33	1002.390652583
2	66825	60.34	1002.5295415828
2	66826	60.35	1002.6684305827
2	66845	60.36	1002.8073195826
2	66846	60.37	1002.9462085824
2	66847	60.38	1003.0850975823
2	66848	60.39	1003.2239865822
2	66849	60.4	1003.3628755821
2	66852	60.41	1003.5017645819
2	66853	60.42	1003.6406535818
2	66872	60.43	1003.7795425817
2	66873	60.44	1003.9184315816
2	66874	60.45	1004.0573205814
2	66893	60.46	1004.1962095813
2	66894	60.47	1004.3350985812
2	66895	60.48	1004.473987581
2	66896	60.49	1004.6128765809
2	66897	60.5	1004.7517655808
2	66900	60.51	1004.8906545807
2	66901	60.52	1005.0295435805
2	66920	60.53	1005.1684325804
2	66921	60.54	1005.3073215803
2	66922	60.55	1005.4462105802
2	66941	60.56	1005.58509958
2	66942	60.57	1005.7239885799
2	66943	60.58	1005.8628775798
2	66944	60.59	1006.0017665797
2	66945	60.6	1006.1406555795
2	66948	60.61	1006.2795445794
2	66949	60.62	1006.4184335793
2	66968	60.63	1006.5573225792
2	66969	60.64	1006.696211579
2	66970	60.65	1006.8351005789
2	66989	60.66	1006.9739895788
2	66990	60.67	1007.1128785787
2	66991	60.68	1007.2517675786
2	66992	60.69	1007.3906565784
2	66993	60.7	1007.5295455783
2	66996	60.71	1007.6684345782
2	66997	60.72	1007.8073235781
2	67016	60.73	1007.9462125779
2	67017	60.74	1008.0851015778
2	67018	60.75	1008.2239905777
2	67037	60.76	1008.3628795776
2	67038	60.77	1008.5017685775
2	67039	60.78	1008.6406575773
2	67040	60.79	1008.7795465772
2	67041	60.8	1008.9184355771
2	67044	60.81	1009.057324577
2	67045	60.82	1009.1962135769
2	67064	60.83	1009.3351025767
2	67065	60.84	1009.4739915766
2	67066	60.85	1009.6128805765
2	67085	60.86	1009.7517695764
2	67086	60.87	1009.8906585763
2	67087	60.88	1010.0295475761
2	67088	60.89	1010.168436576
2	67089	60.9	1010.3073255759
2	67092	60.91	1010.4462145758
2	67093	60.92	1010.5851035757
2	67112	60.93	1010.7239925755
2	67113	60.94	1010.8628815754
2	67114	60.95	1011.0017705753
2	67133	60.96	1011.1406595752
2	67134	60.97	1011.2795485751
2	67135	60.98	1011.418437575
2	67136	60.99	1011.5573265748
2	67139	61	1011.6962155747
2	67142	61.01	1011.8351045746
2	67143	61.02	1011.9739935745
2	67162	61.03	1012.1128825744
2	67163	61.04	1012.2517715743
2	67164	61.05	1012.3906605741
2	67183	61.06	1012.529549574
2	67184	61.07	1012.6684385739
2	67185	61.08	1012.8073275738
2	67186	61.09	1012.9462165737
2	67187	61.1	1013.0851055736
2	67190	61.11	1013.2239945734
2	67191	61.12	1013.3628835733
2	67210	61.13	1013.5017725732
2	67211	61.14	1013.6406615731
2	67212	61.15	1013.779550573
2	67231	61.16	1013.9184395729
2	67232	61.17	1014.0573285728
2	67233	61.18	1014.1962175726
2	67234	61.19	1014.3351065725
2	67235	61.2	1014.4739955724
2	67238	61.21	1014.6128845723
2	67239	61.22	1014.7517735722
2	67258	61.23	1014.8906625721
2	67259	61.24	1015.029551572
2	67260	61.25	1015.1684405719
2	67279	61.26	1015.3073295717
2	67280	61.27	1015.4462185716
2	67281	61.28	1015.5851075715
2	67282	61.29	1015.7239965714
2	67283	61.3	1015.8628855713
2	67286	61.31	1016.0017745712
2	67287	61.32	1016.1406660221
2	67298	61.33	1016.2795647778
2	67299	61.34	1016.4184755972
2	67300	61.35	1016.5574031456
2	67301	61.36	1016.6963519969
2	67302	61.37	1016.8353266355
2	67303	61.38	1016.9743314577
2	67304	61.39	1017.1133707735
2	67305	61.4	1017.2524488086
2	67307	61.41	1017.3915697058
2	67308	61.42	1017.5307375265
2	67319	61.43	1017.6699562528
2	67320	61.44	1017.8092297883
2	67321	61.45	1017.9485619604
2	67322	61.46	1018.0879565212
2	67323	61.47	1018.2274171495
2	67324	61.48	1018.3669474518
2	67325	61.49	1018.5065509638
2	67326	61.5	1018.646231152
2	67328	61.51	1018.785991415
2	67329	61.52	1018.9258350845
2	67340	61.53	1019.0657654273
2	67341	61.54	1019.2057856456
2	67342	61.55	1019.3458988793
2	67343	61.56	1019.4861082064
2	67344	61.57	1019.6264166448
2	67345	61.58	1019.766827153
2	67346	61.59	1019.9073426316
2	67347	61.6	1020.0479659244
2	67349	61.61	1020.1886998192
2	67350	61.62	1020.3295470495
2	67361	61.63	1020.4705102949
2	67362	61.64	1020.6115921824
2	67363	61.65	1020.7527952879
2	67364	61.66	1020.8941221364
2	67365	61.67	1021.0355752036
2	67366	61.68	1021.1771569165
2	67367	61.69	1021.3188696547
2	67368	61.7	1021.4607157509
2	67370	61.71	1021.6026974923
2	67371	61.72	1021.7448171211
2	67382	61.73	1021.8870768356
2	67383	61.74	1022.029478791
2	67384	61.75	1022.1720251002
2	67385	61.76	1022.3147178347
2	67386	61.77	1022.4575590254
2	67387	61.78	1022.6005506634
2	67388	61.79	1022.7436947006
2	67389	61.8	1022.8869930508
2	67391	61.81	1023.0304475902
2	67392	61.82	1023.1740601582
2	67403	61.83	1023.3178325583
2	67404	61.84	1023.4617665583
2	67405	61.85	1023.6058638917
2	67406	61.86	1023.7501262577
2	67407	61.87	1023.8945553225
2	67408	61.88	1024.0391527193
2	67409	61.89	1024.1839200495
2	67410	61.9	1024.328858883
2	67412	61.91	1024.473970759
2	67413	61.92	1024.6192571865
2	67424	61.93	1024.7647196448

