version 3
run OvertakeNoGui-270-20241104-10:05:10-91919
attr configname OvertakeNoGui
attr datetime 20241104-10:05:10
attr datetimef 20241104-100510
attr experiment OvertakeNoGui
attr inifile omnetpp.ini
attr iterationvars "$leaderHeadway=1.2, $leaderSpeed=50, $controller=0, $pCSpeed=57, $pDeltaC=506"
attr iterationvarsd leaderHeadway=1.2/leaderSpeed=50/controller=0/pCSpeed=57/pDeltaC=506
attr iterationvarsf leaderHeadway=1.2,leaderSpeed=50,controller=0,pCSpeed=57,pDeltaC=506-
attr measurement "$leaderHeadway=1.2, $leaderSpeed=50, $controller=0, $pCSpeed=57, $pDeltaC=506"
attr network Overtake
attr processid 91919
attr repetition 0
attr replication #0
attr resultdir results
attr runnumber 270
attr seedset 0
itervar controller 0
itervar leaderHeadway 1.2
itervar leaderSpeed 50
itervar pCSpeed 57
itervar pDeltaC 506
config image-path ../../../../veins/images;../../images
config *.manager.command "\"sumo\""
config *.manager.ignoreGuiCommands true
config *.node[*].scenario_type "\"OvertakeScenario\""
config output-vector-file results/OvertakeNoGui_57_506_0.vec
config output-scalar-file results/OvertakeNoGui_57_506_0.sca
config cmdenv-express-mode false
config cmdenv-autoflush true
config cmdenv-status-frequency 10s
config num-rngs 6
config cmdenv-output-file log.txt
config cmdenv-redirect-output true
config network Overtake
config debug-on-errors true
config print-undisposed true
config *.playgroundSizeX 65000m
config *.playgroundSizeY 25000m
config *.playgroundSizeZ 50m
config sim-time-limit "360 s"
config *.annotations.draw false
config *.obstacles.debug false
config *.world.useTorus false
config *.world.use2D false
config *.manager.updateInterval 0.01s
config *.manager.host "\"localhost\""
config *.manager.moduleType "\"vtypeauto=org.car2x.plexe.PlatoonCar vtypehuman=0\""
config *.manager.moduleName "\"vtypeauto=node vtypehuman=0\""
config *.manager.moduleDisplayString "\"\""
config *.manager.autoShutdown true
config *.manager.margin 25
config *.manager.order -1
config *.connectionManager.sendDirect true
config *.connectionManager.maxInterfDist 2600m
config *.connectionManager.drawMaxIntfDist false
config *.**.nic.mac1609_4.useServiceChannel false
config *.**.nic.mac1609_4.txPower 100mW
config *.**.nic.mac1609_4.bitrate 6Mbps
config *.**.nic.mac1609_4.useAcks true
config *.**.nic.mac1609_4.ackErrorRate 0.0
config *.**.nic.mac1609_4.frameErrorRate 0.0
config *.**.nic.phy80211p.minPowerLevel -94dBm
config *.**.nic.phy80211p.maxTXPower 100mW
config *.**.nic.phy80211p.useNoiseFloor true
config *.**.nic.phy80211p.noiseFloor -95dBm
config *.**.nic.phy80211p.decider "xmldoc(\"config.xml\")"
config *.**.nic.phy80211p.analogueModels "xmldoc(\"config.xml\")"
config *.**.nic.phy80211p.usePropagationDelay true
config *.node[*].mobility.x 0
config *.node[*].mobility.y 0
config *.node[*].mobility.z 1.895
config *.shockwave[*].mobility.x 0
config *.shockwave[*].mobility.y 0
config *.shockwave[*].mobility.z 1.895
config seed-set 0
config **.seed 0
config *.node[*].prot.rng-0 2
config *.node[*].appl.rng-0 3
config *.node[*].scenario.rng-0 4
config *.manager.configFile "\"./sumocfg/overtake.sumo.cfg\""
config *.manager.launchConfig "xmldoc(\"./sumocfg/overtake.launchd.xml\")"
config *.node[*].helper_type "\"PositionHelper\""
config *.node[*].scenario.caccC1 0.5
config *.node[*].scenario.caccXi 1
config *.node[*].scenario.caccOmegaN "0.2 Hz"
config *.node[*].scenario.caccSpacing "5 m"
config *.node[*].scenario.engineTau "0.5 s"
config *.node[*].scenario.ploegH "0.5 s"
config *.node[*].scenario.ploegKp 0.2
config *.node[*].scenario.ploegKd 0.7
config *.node[*].scenario.useRealisticEngine false
config *.node[*].scenario.targetController "\"CACC\""
config *.node[*].scenario.accHeadway "0.1 s"
config *.node[*].scenario.leaderHeadway "1.2 s"
config *.node[*].scenario.leaderSpeed "50 kmph"
config *.node[*].appl_type "\"OvertakeApp\""
config *.node[*].appl.*.scalar-recording true
config *.node[*].appl.*.vector-recording true
config *.node[*].appl.overtakeManeuver "\"OvertakeManeuver\""
config *.node[*].protocol_type "\"SimplePlatooningBeaconing\""
config *.node[*].prot.*.scalar-recording true
config *.node[*].prot.*.vector-recording true
config *.node[*].prot.beaconingInterval "0.1 s"
config *.node[*].prot.priority 4
config *.node[*].prot.packetSize 200
config *.node[*].prot.useControllerAcceleration true
config **.traffic_type "\"OvertakeTrafficManager\""
config **.traffic.platoonInsertTime "0.1 s"
config **.traffic.platooningVType "\"vtypeauto\""
config **.numericController 0
config **.traffic.platoonInsertDistance 5m
config **.traffic.platoonInsertHeadway 0s
config **.traffic.platoonLeaderHeadway 1.2s
config **.traffic.platoonASpeed 50kmph
config **.traffic.platoonBSpeed 100kmph
config **.traffic.platoonCSpeed 57kmph
config **.traffic.platoonSizeA 2
config **.traffic.platoonSizeB 1
config **.traffic.platoonSizeC 1
config **.traffic.initialPositionDeltaA 150
config **.traffic.initialPositionDeltaB 50
config **.traffic.initialPositionDeltaC 506
config **.traffic.controller "\"CACC\""
config **.scalar-recording true
config **.vector-recording true

vector 0 Overtake.node[0].mobility posx ETV
vector 1 Overtake.node[0].mobility posy ETV
vector 2 Overtake.node[1].mobility posx ETV
vector 3 Overtake.node[1].mobility posy ETV
vector 4 Overtake.node[2].mobility posx ETV
vector 5 Overtake.node[2].mobility posy ETV
vector 6 Overtake.node[3].mobility posx ETV
vector 7 Overtake.node[3].mobility posy ETV
vector 8 Overtake.node[0].mobility speed ETV
vector 9 Overtake.node[1].mobility speed ETV
vector 10 Overtake.node[2].mobility speed ETV
vector 11 Overtake.node[3].mobility speed ETV
vector 12 Overtake.node[0].mobility acceleration ETV
vector 13 Overtake.node[0].mobility co2emission ETV
vector 14 Overtake.node[1].mobility acceleration ETV
vector 15 Overtake.node[1].mobility co2emission ETV
vector 16 Overtake.node[2].mobility acceleration ETV
vector 17 Overtake.node[2].mobility co2emission ETV
vector 18 Overtake.node[3].mobility acceleration ETV
vector 19 Overtake.node[3].mobility co2emission ETV
vector 20 Overtake.node[0].appl distance ETV
vector 21 Overtake.node[0].appl relativeSpeed ETV
vector 22 Overtake.node[0].appl nodeId ETV
vector 23 Overtake.node[0].appl acceleration ETV
vector 24 Overtake.node[0].appl controllerAcceleration ETV
vector 25 Overtake.node[0].appl speed ETV
vector 26 Overtake.node[0].appl posx ETV
vector 27 Overtake.node[0].appl posy ETV
vector 28 Overtake.node[1].appl distance ETV
vector 29 Overtake.node[1].appl relativeSpeed ETV
vector 30 Overtake.node[1].appl nodeId ETV
vector 31 Overtake.node[1].appl acceleration ETV
vector 32 Overtake.node[1].appl controllerAcceleration ETV
vector 33 Overtake.node[1].appl speed ETV
vector 34 Overtake.node[1].appl posx ETV
vector 35 Overtake.node[1].appl posy ETV
vector 36 Overtake.node[2].appl distance ETV
vector 37 Overtake.node[2].appl relativeSpeed ETV
vector 38 Overtake.node[2].appl nodeId ETV
vector 39 Overtake.node[2].appl acceleration ETV
vector 40 Overtake.node[2].appl controllerAcceleration ETV
vector 41 Overtake.node[2].appl speed ETV
vector 42 Overtake.node[2].appl posx ETV
vector 43 Overtake.node[2].appl posy ETV
vector 44 Overtake.node[3].appl distance ETV
vector 45 Overtake.node[3].appl relativeSpeed ETV
vector 46 Overtake.node[3].appl nodeId ETV
vector 47 Overtake.node[3].appl acceleration ETV
vector 48 Overtake.node[3].appl controllerAcceleration ETV
vector 49 Overtake.node[3].appl speed ETV
vector 50 Overtake.node[3].appl posx ETV
vector 51 Overtake.node[3].appl posy ETV
vector 52 Overtake.node[1].prot leaderDelay ETV
vector 53 Overtake.node[1].prot leaderDelayId ETV
vector 54 Overtake.node[1].prot frontDelay ETV
vector 55 Overtake.node[1].prot frontDelayId ETV
vector 56 Overtake.node[0].prot nodeId ETV
vector 57 Overtake.node[0].prot busyTime ETV
vector 58 Overtake.node[0].prot collisions ETV
vector 59 Overtake.node[1].prot nodeId ETV
vector 60 Overtake.node[1].prot busyTime ETV
vector 61 Overtake.node[1].prot collisions ETV
vector 62 Overtake.node[2].prot nodeId ETV
vector 63 Overtake.node[2].prot busyTime ETV
vector 64 Overtake.node[2].prot collisions ETV
vector 65 Overtake.node[3].prot nodeId ETV
vector 66 Overtake.node[3].prot busyTime ETV
vector 67 Overtake.node[3].prot collisions ETV
48	26	0.21	0.00327777
48	176	0.31	0.00320128
48	326	0.41	0.00308111
48	476	0.51	0.00292728
48	626	0.61	0.00274857
48	776	0.71	0.00255267
48	926	0.81	0.00234618
48	1076	0.91	0.00213471
48	1230	1.01	0.00192294
48	1381	1.11	0.00171473
48	1532	1.21	0.00151316
48	1683	1.31	0.00132067
48	2046	1.41	0.00113907
48	2196	1.51	0.000969668
48	2346	1.61	0.000813306
48	2496	1.71	0.000670447
48	2646	1.81	0.000541228
48	2796	1.91	0.000425516
48	2950	2.01	0.00032296
48	3100	2.11	0.000233036
48	3250	2.21	0.000155087
48	3400	2.31	8.83603e-05
48	3763	2.41	3.20362e-05
48	3914	2.51	-1.47438e-05
48	4064	2.61	-5.28552e-05
48	4214	2.71	-8.31719e-05
48	4364	2.81	-0.00010655
48	4514	2.91	-0.000123818
48	4668	3.01	-0.000135762
48	4818	3.11	-0.000143126
48	4968	3.21	-0.0001466
48	5118	3.31	-0.00014682
48	5269	3.41	-0.000144367
48	5676	3.51	-0.000139766
48	5826	3.61	-0.000133484
48	5976	3.71	-0.000125937
48	6126	3.81	-0.000117487
48	6276	3.91	-0.000108447
48	6430	4.01	-9.9087e-05
48	6580	4.11	-8.9631e-05
48	6730	4.21	-8.02661e-05
48	6880	4.31	-7.1144e-05
48	7030	4.41	-6.23847e-05
48	7393	4.51	-5.40801e-05
48	7544	4.61	-4.62974e-05
48	7694	4.71	-3.90826e-05
48	7844	4.81	-3.24629e-05
48	7994	4.91	-2.64502e-05
48	8148	5.01	-2.10433e-05
48	8298	5.11	-1.62303e-05
48	8448	5.21	-1.19909e-05
48	8598	5.31	-8.298e-06
48	8748	5.41	-5.11973e-06
48	8899	5.51	-2.42061e-06
48	9262	5.61	-1.62981e-07
48	9412	5.71	1.69199e-06
48	9562	5.81	3.18336e-06
48	9712	5.91	4.34971e-06
48	9866	6.01	5.2285e-06
48	10016	6.11	5.85565e-06
48	10166	6.21	6.26509e-06
48	10316	6.31	6.48862e-06
48	10466	6.41	6.5556e-06
48	10616	6.51	6.49297e-06
48	11023	6.61	6.32514e-06
48	11174	6.71	6.07401e-06
48	11324	6.81	5.75905e-06
48	11474	6.91	5.39739e-06
48	11628	7.01	5.00389e-06
48	11778	7.11	4.59133e-06
48	11928	7.21	4.17054e-06
48	12078	7.31	3.75054e-06
48	12228	7.41	3.33873e-06
48	12378	7.51	2.94102e-06
48	12529	7.61	2.56201e-06
48	12892	7.71	2.20513e-06
48	13042	7.81	1.87282e-06
48	13192	7.91	1.56662e-06
48	13346	8.01	1.28733e-06
48	13496	8.11	1.03512e-06
48	13646	8.21	8.09661e-07
48	13796	8.31	6.10182e-07
48	13946	8.41	4.35596e-07
48	14096	8.51	2.84561e-07
48	14246	8.61	1.55556e-07
48	14609	8.71	4.6937e-08
48	14760	8.81	-4.30102e-08
48	14910	8.91	-1.16027e-07
48	15064	9.01	-1.73845e-07
48	15214	9.11	-2.18158e-07
48	15364	9.21	-2.50597e-07
48	15514	9.31	-2.72714e-07
48	15664	9.41	-2.85966e-07
48	15814	9.51	-2.91708e-07
48	15964	9.61	-2.91186e-07
48	16115	9.71	-2.85536e-07
48	16522	9.81	-2.75779e-07
48	16672	9.91	-2.62829e-07
48	16826	10.01	-2.47491e-07
48	16976	10.11	-2.3047e-07
48	17126	10.21	-2.12373e-07
48	17276	10.31	-1.93718e-07
48	17426	10.41	-1.7494e-07
48	17576	10.51	-1.56398e-07
48	17726	10.61	-1.38382e-07
48	17876	10.71	-1.2112e-07
48	18239	10.81	-1.04787e-07
48	18390	10.91	-8.95092e-08
48	18544	11.01	-7.53703e-08
48	18694	11.11	-6.24198e-08
48	18844	11.21	-5.06763e-08
48	18994	11.31	-4.01336e-08
48	19144	11.41	-3.07651e-08
48	19294	11.51	-2.25279e-08
48	19444	11.61	-1.53664e-08
48	19594	11.71	-9.21592e-09
48	19745	11.81	-4.00515e-09
48	20108	11.91	3.41416e-10
48	20262	12.01	3.90088e-09
48	20412	12.11	6.75104e-09
48	20562	12.21	8.96812e-09
48	20712	12.31	1.0626e-08
48	20862	12.41	1.17954e-08
48	21012	12.51	1.25432e-08
48	21162	12.61	1.29317e-08
48	21312	12.71	1.30184e-08
48	21462	12.81	1.2856e-08
48	21845	12.91	1.24922e-08
48	22000	13.01	1.19698e-08
48	22150	13.11	1.13266e-08
48	22300	13.21	1.05958e-08
48	22450	13.31	9.8062e-09
48	22600	13.41	8.9825e-09
48	22750	13.51	8.14584e-09
48	22900	13.61	7.31326e-09
48	23050	13.71	6.49916e-09
48	23200	13.81	5.71472e-09
48	23351	13.91	4.96883e-09
48	23738	14.01	4.2677e-09
48	23888	14.11	3.61595e-09
48	24038	14.21	3.01661e-09
48	24188	14.31	2.47073e-09
48	24338	14.41	1.97868e-09
48	24488	14.51	1.53939e-09
48	24638	14.61	1.15161e-09
48	24788	14.71	8.12683e-10
48	24938	14.81	5.20117e-10
48	25088	14.91	2.70717e-10
48	25242	15.01	6.12843e-11
48	25392	15.11	-1.11555e-10
48	25542	15.21	-2.51354e-10
48	25692	15.31	-3.61489e-10
48	25842	15.41	-4.4551e-10
48	25992	15.51	-5.06262e-10
48	26142	15.61	-5.47118e-10
48	26292	15.71	-5.70921e-10
48	26442	15.81	-5.79981e-10
48	26592	15.91	-5.77138e-10
48	26746	16.01	-5.64526e-10
48	26896	16.11	-5.4392e-10
48	27046	16.21	-5.17453e-10
48	27196	16.31	-4.86367e-10
48	27346	16.41	-4.52083e-10
48	27496	16.51	-4.15845e-10
48	27646	16.61	-3.78719e-10
48	27796	16.71	-3.41416e-10
48	27946	16.81	-3.04823e-10
48	28096	16.91	-2.69296e-10
48	28250	17.01	-2.35367e-10
48	28400	17.11	-2.03215e-10
48	28550	17.21	-1.73195e-10
48	28700	17.31	-1.45484e-10
48	28850	17.41	-1.20259e-10
48	29000	17.51	-9.71667e-11
48	29150	17.61	-7.6561e-11
48	29300	17.71	-5.82645e-11
48	29450	17.81	-4.22773e-11
48	29600	17.91	-2.82441e-11
48	29754	18.01	-1.63425e-11
48	29904	18.11	-6.21725e-12
48	30054	18.21	2.13163e-12
48	30204	18.31	9.05942e-12
48	30354	18.41	1.43885e-11
48	30504	18.51	1.86517e-11
48	30654	18.61	2.18492e-11
48	30804	18.71	2.39808e-11
48	30954	18.81	2.54019e-11
48	31104	18.91	2.59348e-11
48	31258	19.01	2.61124e-11
48	31408	19.11	2.55795e-11
48	31558	19.21	2.4869e-11
48	31708	19.31	2.38032e-11
48	31858	19.41	2.23821e-11
48	32008	19.51	2.0961e-11
48	32158	19.61	1.93623e-11
48	32308	19.71	1.77636e-11
48	32458	19.81	1.61648e-11
48	32608	19.91	1.45661e-11
48	32762	20.01	1.27898e-11
48	32912	20.11	1.1191e-11
48	33062	20.21	9.76996e-12
48	33212	20.31	8.34888e-12
48	33362	20.41	7.10543e-12
48	33512	20.51	6.03961e-12
48	33662	20.61	4.9738e-12
48	33812	20.71	4.08562e-12
48	33962	20.81	3.37508e-12
48	34112	20.91	2.66454e-12
48	34266	21.01	1.95399e-12
48	34416	21.11	1.24345e-12
48	34566	21.21	7.10543e-13
48	34716	21.31	1.77636e-13
48	34866	21.41	-1.77636e-13
48	35016	21.51	-5.32907e-13
48	35166	21.61	-8.88178e-13
48	35316	21.71	-1.24345e-12
48	35466	21.81	-1.59872e-12
48	35616	21.91	-1.95399e-12
48	35770	22.01	-2.13163e-12
48	35920	22.11	-2.30926e-12
48	36070	22.21	-2.4869e-12
48	36220	22.31	-2.66454e-12
48	36370	22.41	-2.84217e-12
48	36520	22.51	-3.01981e-12
48	36670	22.61	-3.19744e-12
48	36820	22.71	-3.37508e-12
48	36970	22.81	-3.37508e-12
48	37120	22.91	-3.55271e-12
48	37274	23.01	-3.55271e-12
48	37424	23.11	-3.73035e-12
48	37574	23.21	-3.73035e-12
48	37724	23.31	-3.73035e-12
48	37874	23.41	-3.90799e-12
48	38024	23.51	-3.90799e-12
48	38174	23.61	-3.90799e-12
48	38324	23.71	-4.08562e-12
48	38474	23.81	-4.08562e-12
48	38624	23.91	-4.08562e-12
48	38778	24.01	-4.08562e-12
48	38928	24.11	-4.08562e-12
48	39078	24.21	-4.26326e-12
48	39228	24.31	-4.26326e-12
48	39378	24.41	-4.26326e-12
48	39528	24.51	-4.26326e-12
48	39678	24.61	-4.26326e-12
48	39828	24.71	-4.26326e-12
48	39978	24.81	-4.26326e-12
48	40128	24.91	-4.26326e-12
48	40282	25.01	-4.26326e-12
48	40432	25.11	-4.26326e-12
48	40582	25.21	-4.44089e-12
48	40732	25.31	-4.44089e-12
48	40882	25.41	-4.44089e-12
48	41032	25.51	-4.44089e-12
48	41182	25.61	-4.44089e-12
48	41333	25.71	-4.44089e-12
48	41483	25.81	-4.44089e-12
48	41633	25.91	-4.44089e-12
48	41787	26.01	-4.44089e-12
48	41937	26.11	-4.44089e-12
48	42087	26.21	-4.44089e-12
48	42237	26.31	-4.44089e-12
48	42387	26.41	-4.44089e-12
48	42537	26.51	-4.44089e-12
48	42687	26.61	-4.44089e-12
48	42837	26.71	-4.44089e-12
48	42987	26.81	-4.44089e-12
48	43137	26.91	-4.44089e-12
48	43291	27.01	-4.44089e-12
48	43441	27.11	-4.44089e-12
48	43591	27.21	-4.44089e-12
48	43741	27.31	-4.44089e-12
48	43891	27.41	-4.44089e-12
48	44041	27.51	-4.44089e-12
48	44191	27.61	-4.44089e-12
48	44341	27.71	-4.44089e-12
48	44491	27.81	-4.44089e-12
48	44641	27.91	-4.44089e-12
48	44795	28.01	-4.44089e-12
48	44945	28.11	-4.44089e-12
48	45095	28.21	-4.44089e-12
48	45245	28.31	-4.44089e-12
48	45395	28.41	-4.44089e-12
48	45545	28.51	-4.44089e-12
48	45695	28.61	-4.44089e-12
48	45845	28.71	-4.44089e-12
48	45995	28.81	-4.44089e-12
48	46145	28.91	-4.44089e-12
48	46299	29.01	-4.44089e-12
48	46449	29.11	-4.44089e-12
48	46599	29.21	-4.44089e-12
48	46749	29.31	-4.44089e-12
48	46899	29.41	-4.44089e-12
48	47049	29.51	-4.44089e-12
48	47199	29.61	-4.44089e-12
48	47349	29.71	-4.44089e-12
48	47499	29.81	-4.44089e-12
48	47649	29.91	-4.44089e-12
48	47803	30.01	-4.44089e-12
48	47953	30.11	-4.44089e-12
48	48103	30.21	-4.44089e-12
48	48253	30.31	-4.44089e-12
48	48403	30.41	-4.44089e-12
48	48553	30.51	-4.44089e-12
48	48703	30.61	-4.44089e-12
48	48853	30.71	-4.44089e-12
48	49003	30.81	-4.44089e-12
48	49153	30.91	-4.44089e-12
48	49307	31.01	-4.44089e-12
48	49457	31.11	-4.44089e-12
48	49607	31.21	-4.44089e-12
48	49757	31.31	-4.44089e-12
47	26	0.21	0.000537287
47	176	0.31	0.00102256
47	326	0.41	0.0014023
47	476	0.51	0.00168868
47	626	0.61	0.00189332
47	776	0.71	0.00202724
47	926	0.81	0.00210073
47	1076	0.91	0.00212335
47	1230	1.01	0.00210382
47	1381	1.11	0.00205006
47	1532	1.21	0.00196919
47	1683	1.31	0.00186754
47	2046	1.41	0.00175064
47	2196	1.51	0.00162335
47	2346	1.61	0.00148981
47	2496	1.71	0.00135354
47	2646	1.81	0.00121748
47	2796	1.91	0.00108402
47	2950	2.01	0.000955094
47	3100	2.11	0.0008322
47	3250	2.21	0.000716459
47	3400	2.31	0.00060866
47	3763	2.41	0.00050931
47	3914	2.51	0.000418674
47	4064	2.61	0.000336812
47	4214	2.71	0.000263615
47	4364	2.81	0.00019884
47	4514	2.91	0.000142136
47	4668	3.01	9.30689e-05
47	4818	3.11	5.11479e-05
47	4968	3.21	1.58407e-05
47	5118	3.31	-1.34077e-05
47	5269	3.41	-3.7161e-05
47	5676	3.51	-5.59805e-05
47	5826	3.61	-7.0415e-05
47	5976	3.71	-8.09934e-05
47	6126	3.81	-8.82186e-05
47	6276	3.91	-9.25636e-05
47	6430	4.01	-9.44677e-05
47	6580	4.11	-9.43354e-05
47	6730	4.21	-9.25349e-05
47	6880	4.31	-8.93982e-05
47	7030	4.41	-8.52216e-05
47	7393	4.51	-8.02667e-05
47	7544	4.61	-7.47624e-05
47	7694	4.71	-6.8906e-05
47	7844	4.81	-6.28658e-05
47	7994	4.91	-5.67832e-05
47	8148	5.01	-5.07749e-05
47	8298	5.11	-4.49353e-05
47	8448	5.21	-3.93389e-05
47	8598	5.31	-3.40422e-05
47	8748	5.41	-2.90866e-05
47	8899	5.51	-2.44995e-05
47	9262	5.61	-2.02971e-05
47	9412	5.71	-1.64857e-05
47	9562	5.81	-1.30632e-05
47	9712	5.91	-1.00213e-05
47	9866	6.01	-7.34621e-06
47	10016	6.11	-5.0199e-06
47	10166	6.21	-3.02148e-06
47	10316	6.31	-1.32788e-06
47	10466	6.41	8.52683e-08
47	10616	6.51	1.24302e-06
47	11023	6.61	2.17048e-06
47	11174	6.71	2.89239e-06
47	11324	6.81	3.43273e-06
47	11474	6.91	3.81443e-06
47	11628	7.01	4.05915e-06
47	11778	7.11	4.18709e-06
47	11928	7.21	4.21695e-06
47	12078	7.31	4.16581e-06
47	12228	7.41	4.04914e-06
47	12378	7.51	3.88081e-06
47	12529	7.61	3.67311e-06
47	12892	7.71	3.43684e-06
47	13042	7.81	3.18138e-06
47	13192	7.91	2.91475e-06
47	13346	8.01	2.64375e-06
47	13496	8.11	2.37401e-06
47	13646	8.21	2.11015e-06
47	13796	8.31	1.85584e-06
47	13946	8.41	1.61394e-06
47	14096	8.51	1.38655e-06
47	14246	8.61	1.17514e-06
47	14609	8.71	9.8063e-07
47	14760	8.81	8.03478e-07
47	14910	8.91	6.43741e-07
47	15064	9.01	5.01155e-07
47	15214	9.11	3.75196e-07
47	15364	9.21	2.65136e-07
47	15514	9.31	1.70093e-07
47	15664	9.41	8.90738e-08
47	15814	9.51	2.10125e-08
47	15964	9.61	-3.51985e-08
47	16115	9.71	-8.06798e-08
47	16522	9.81	-1.16543e-07
47	16672	9.91	-1.43873e-07
47	16826	10.01	-1.63713e-07
47	16976	10.11	-1.77052e-07
47	17126	10.21	-1.84819e-07
47	17276	10.31	-1.87876e-07
47	17426	10.41	-1.87014e-07
47	17576	10.51	-1.82953e-07
47	17726	10.61	-1.76339e-07
47	17876	10.71	-1.67752e-07
47	18239	10.81	-1.57698e-07
47	18390	10.91	-1.46622e-07
47	18544	11.01	-1.34906e-07
47	18694	11.11	-1.22875e-07
47	18844	11.21	-1.10801e-07
47	18994	11.31	-9.89095e-08
47	19144	11.41	-8.73802e-08
47	19294	11.51	-7.63549e-08
47	19444	11.61	-6.59407e-08
47	19594	11.71	-5.62148e-08
47	19745	11.81	-4.72278e-08
47	20108	11.91	-3.90086e-08
47	20262	12.01	-3.15662e-08
47	20412	12.11	-2.48946e-08
47	20562	12.21	-1.89752e-08
47	20712	12.31	-1.37788e-08
47	20862	12.41	-9.26885e-09
47	21012	12.51	-5.40279e-09
47	21162	12.61	-2.13447e-09
47	21312	12.71	5.84954e-10
47	21462	12.81	2.8054e-09
47	21845	12.91	4.57643e-09
47	22000	13.01	5.94724e-09
47	22150	13.11	6.9651e-09
47	22300	13.21	7.67546e-09
47	22450	13.31	8.12062e-09
47	22600	13.41	8.33964e-09
47	22750	13.51	8.37019e-09
47	22900	13.61	8.24496e-09
47	23050	13.71	7.99414e-09
47	23200	13.81	7.64526e-09
47	23351	13.91	7.22178e-09
47	23738	14.01	6.74483e-09
47	23888	14.11	6.2327e-09
47	24038	14.21	5.70068e-09
47	24188	14.31	5.16245e-09
47	24338	14.41	4.62794e-09
47	24488	14.51	4.10658e-09
47	24638	14.61	3.60512e-09
47	24788	14.71	3.12923e-09
47	24938	14.81	2.68283e-09
47	25088	14.91	2.26823e-09
47	25242	15.01	1.88756e-09
47	25392	15.11	1.54117e-09
47	25542	15.21	1.22959e-09
47	25692	15.31	9.5195e-10
47	25842	15.41	7.0699e-10
47	25992	15.51	4.93472e-10
47	26142	15.61	3.09441e-10
47	26292	15.71	1.52944e-10
47	26442	15.81	2.18492e-11
47	26592	15.91	-8.59757e-11
47	26746	16.01	-1.73017e-10
47	26896	16.11	-2.41407e-10
47	27046	16.21	-2.93099e-10
47	27196	16.31	-3.30402e-10
47	27346	16.41	-3.54916e-10
47	27496	16.51	-3.68594e-10
47	27646	16.61	-3.73213e-10
47	27796	16.71	-3.7037e-10
47	27946	16.81	-3.61311e-10
47	28096	16.91	-3.47455e-10
47	28250	17.01	-3.29869e-10
47	28400	17.11	-3.09441e-10
47	28550	17.21	-2.87237e-10
47	28700	17.31	-2.64144e-10
47	28850	17.41	-2.40163e-10
47	29000	17.51	-2.16716e-10
47	29150	17.61	-1.93623e-10
47	29300	17.71	-1.7053e-10
47	29450	17.81	-1.48859e-10
47	29600	17.91	-1.28253e-10
47	29754	18.01	-1.08891e-10
47	29904	18.11	-9.11271e-11
47	30054	18.21	-7.51399e-11
47	30204	18.31	-6.05738e-11
47	30354	18.41	-4.76064e-11
47	30504	18.51	-3.606e-11
47	30654	18.61	-2.57572e-11
47	30804	18.71	-1.68754e-11
47	30954	18.81	-9.59233e-12
47	31104	18.91	-3.19744e-12
47	31258	19.01	2.13163e-12
47	31408	19.11	6.21725e-12
47	31558	19.21	9.76996e-12
47	31708	19.31	1.22569e-11
47	31858	19.41	1.40332e-11
47	32008	19.51	1.58096e-11
47	32158	19.61	1.61648e-11
47	32308	19.71	1.61648e-11
47	32458	19.81	1.61648e-11
47	32608	19.91	1.61648e-11
47	32762	20.01	1.61648e-11
47	32912	20.11	1.56319e-11
47	33062	20.21	1.42109e-11
47	33212	20.31	1.27898e-11
47	33362	20.41	1.15463e-11
47	33512	20.51	1.04805e-11
47	33662	20.61	9.41469e-12
47	33812	20.71	8.52651e-12
47	33962	20.81	7.81597e-12
47	34112	20.91	7.10543e-12
47	34266	21.01	6.39488e-12
47	34416	21.11	5.68434e-12
47	34566	21.21	5.15143e-12
47	34716	21.31	4.61853e-12
47	34866	21.41	4.26326e-12
47	35016	21.51	3.90799e-12
47	35166	21.61	3.55271e-12
47	35316	21.71	3.19744e-12
47	35466	21.81	2.84217e-12
47	35616	21.91	2.4869e-12
47	35770	22.01	2.30926e-12
47	35920	22.11	2.13163e-12
47	36070	22.21	1.95399e-12
47	36220	22.31	1.77636e-12
47	36370	22.41	1.59872e-12
47	36520	22.51	1.42109e-12
47	36670	22.61	1.24345e-12
47	36820	22.71	1.06581e-12
47	36970	22.81	1.06581e-12
47	37120	22.91	8.88178e-13
47	37274	23.01	8.88178e-13
47	37424	23.11	7.10543e-13
47	37574	23.21	7.10543e-13
47	37724	23.31	7.10543e-13
47	37874	23.41	5.32907e-13
47	38024	23.51	5.32907e-13
47	38174	23.61	5.32907e-13
47	38324	23.71	3.55271e-13
47	38474	23.81	3.55271e-13
47	38624	23.91	3.55271e-13
47	38778	24.01	3.55271e-13
47	38928	24.11	3.55271e-13
47	39078	24.21	1.77636e-13
47	39228	24.31	1.77636e-13
47	39378	24.41	1.77636e-13
47	39528	24.51	1.77636e-13
47	39678	24.61	1.77636e-13
47	39828	24.71	1.77636e-13
47	39978	24.81	1.77636e-13
47	40128	24.91	1.77636e-13
47	40282	25.01	1.77636e-13
47	40432	25.11	1.77636e-13
47	40582	25.21	0
47	40732	25.31	0
47	40882	25.41	0
47	41032	25.51	0
47	41182	25.61	0
47	41333	25.71	0
47	41483	25.81	0
47	41633	25.91	0
47	41787	26.01	0
47	41937	26.11	0
47	42087	26.21	0
47	42237	26.31	0
47	42387	26.41	0
47	42537	26.51	0
47	42687	26.61	0
47	42837	26.71	0
47	42987	26.81	0
47	43137	26.91	0
47	43291	27.01	0
47	43441	27.11	0
47	43591	27.21	0
47	43741	27.31	0
47	43891	27.41	0
47	44041	27.51	0
47	44191	27.61	0
47	44341	27.71	0
47	44491	27.81	0
47	44641	27.91	0
47	44795	28.01	0
47	44945	28.11	0
47	45095	28.21	0
47	45245	28.31	0
47	45395	28.41	0
47	45545	28.51	0
47	45695	28.61	0
47	45845	28.71	0
47	45995	28.81	0
47	46145	28.91	0
47	46299	29.01	0
47	46449	29.11	0
47	46599	29.21	0
47	46749	29.31	0
47	46899	29.41	0
47	47049	29.51	0
47	47199	29.61	0
47	47349	29.71	0
47	47499	29.81	0
47	47649	29.91	0
47	47803	30.01	0
47	47953	30.11	0
47	48103	30.21	0
47	48253	30.31	0
47	48403	30.41	0
47	48553	30.51	0
47	48703	30.61	0
47	48853	30.71	0
47	49003	30.81	0
47	49153	30.91	0
47	49307	31.01	0
47	49457	31.11	0
47	49607	31.21	0
47	49757	31.31	0
51	26	0.21	1.6
51	176	0.31	1.6
51	326	0.41	1.6
51	476	0.51	1.6
51	626	0.61	1.6
51	776	0.71	1.6
51	926	0.81	1.6
51	1076	0.91	1.6
51	1230	1.01	1.6
51	1381	1.11	1.6
51	1532	1.21	1.6
51	1683	1.31	1.6
51	2046	1.41	1.6
51	2196	1.51	1.6
51	2346	1.61	1.6
51	2496	1.71	1.6
51	2646	1.81	1.6
51	2796	1.91	1.6
51	2950	2.01	1.6
51	3100	2.11	1.6
51	3250	2.21	1.6
51	3400	2.31	1.6
51	3763	2.41	1.6
51	3914	2.51	1.6
51	4064	2.61	1.6
51	4214	2.71	1.6
51	4364	2.81	1.6
51	4514	2.91	1.6
51	4668	3.01	1.6
51	4818	3.11	1.6
51	4968	3.21	1.6
51	5118	3.31	1.6
51	5269	3.41	1.6
51	5676	3.51	1.6
51	5826	3.61	1.6
51	5976	3.71	1.6
51	6126	3.81	1.6
51	6276	3.91	1.6
51	6430	4.01	1.6
51	6580	4.11	1.6
51	6730	4.21	1.6
51	6880	4.31	1.6
51	7030	4.41	1.6
51	7393	4.51	1.6
51	7544	4.61	1.6
51	7694	4.71	1.6
51	7844	4.81	1.6
51	7994	4.91	1.6
51	8148	5.01	1.6
51	8298	5.11	1.6
51	8448	5.21	1.6
51	8598	5.31	1.6
51	8748	5.41	1.6
51	8899	5.51	1.6
51	9262	5.61	1.6
51	9412	5.71	1.6
51	9562	5.81	1.6
51	9712	5.91	1.6
51	9866	6.01	1.6
51	10016	6.11	1.6
51	10166	6.21	1.6
51	10316	6.31	1.6
51	10466	6.41	1.6
51	10616	6.51	1.6
51	11023	6.61	1.6
51	11174	6.71	1.6
51	11324	6.81	1.6
51	11474	6.91	1.6
51	11628	7.01	1.6
51	11778	7.11	1.6
51	11928	7.21	1.6
51	12078	7.31	1.6
51	12228	7.41	1.6
51	12378	7.51	1.6
51	12529	7.61	1.6
51	12892	7.71	1.6
51	13042	7.81	1.6
51	13192	7.91	1.6
51	13346	8.01	1.6
51	13496	8.11	1.6
51	13646	8.21	1.6
51	13796	8.31	1.6
51	13946	8.41	1.6
51	14096	8.51	1.6
51	14246	8.61	1.6
51	14609	8.71	1.6
51	14760	8.81	1.6
51	14910	8.91	1.6
51	15064	9.01	1.6
51	15214	9.11	1.6
51	15364	9.21	1.6
51	15514	9.31	1.6
51	15664	9.41	1.6
51	15814	9.51	1.6
51	15964	9.61	1.6
51	16115	9.71	1.6
51	16522	9.81	1.6
51	16672	9.91	1.6
51	16826	10.01	1.6
51	16976	10.11	1.6
51	17126	10.21	1.6
51	17276	10.31	1.6
51	17426	10.41	1.6
51	17576	10.51	1.6
51	17726	10.61	1.6
51	17876	10.71	1.6
51	18239	10.81	1.6
51	18390	10.91	1.6
51	18544	11.01	1.6
51	18694	11.11	1.6
51	18844	11.21	1.6
51	18994	11.31	1.6
51	19144	11.41	1.6
51	19294	11.51	1.6
51	19444	11.61	1.6
51	19594	11.71	1.6
51	19745	11.81	1.6
51	20108	11.91	1.6
51	20262	12.01	1.6
51	20412	12.11	1.6
51	20562	12.21	1.6
51	20712	12.31	1.6
51	20862	12.41	1.6
51	21012	12.51	1.6
51	21162	12.61	1.6
51	21312	12.71	1.6
51	21462	12.81	1.6
51	21845	12.91	1.6
51	22000	13.01	1.6
51	22150	13.11	1.6
51	22300	13.21	1.6
51	22450	13.31	1.6
51	22600	13.41	1.6
51	22750	13.51	1.6
51	22900	13.61	1.6
51	23050	13.71	1.6
51	23200	13.81	1.6
51	23351	13.91	1.6
51	23738	14.01	1.6
51	23888	14.11	1.6
51	24038	14.21	1.6
51	24188	14.31	1.6
51	24338	14.41	1.6
51	24488	14.51	1.6
51	24638	14.61	1.6
51	24788	14.71	1.6
51	24938	14.81	1.6
51	25088	14.91	1.6
51	25242	15.01	1.6
51	25392	15.11	1.6
51	25542	15.21	1.6
51	25692	15.31	1.6
51	25842	15.41	1.6
51	25992	15.51	1.6
51	26142	15.61	1.6
51	26292	15.71	1.6
51	26442	15.81	1.6
51	26592	15.91	1.6
51	26746	16.01	1.6
51	26896	16.11	1.6
51	27046	16.21	1.6
51	27196	16.31	1.6
51	27346	16.41	1.6
51	27496	16.51	1.6
51	27646	16.61	1.6
51	27796	16.71	1.6
51	27946	16.81	1.6
51	28096	16.91	1.6
51	28250	17.01	1.6
51	28400	17.11	1.6
51	28550	17.21	1.6
51	28700	17.31	1.6
51	28850	17.41	1.6
51	29000	17.51	1.6
51	29150	17.61	1.6
51	29300	17.71	1.6
51	29450	17.81	1.6
51	29600	17.91	1.6
51	29754	18.01	1.6
51	29904	18.11	1.6
51	30054	18.21	1.6
51	30204	18.31	1.6
51	30354	18.41	1.6
51	30504	18.51	1.6
51	30654	18.61	1.6
51	30804	18.71	1.6
51	30954	18.81	1.6
51	31104	18.91	1.6
51	31258	19.01	1.6
51	31408	19.11	1.6
51	31558	19.21	1.6
51	31708	19.31	1.6
51	31858	19.41	1.6
51	32008	19.51	1.6
51	32158	19.61	1.6
51	32308	19.71	1.6
51	32458	19.81	1.6
51	32608	19.91	1.6
51	32762	20.01	1.6
51	32912	20.11	1.6
51	33062	20.21	1.6
51	33212	20.31	1.6
51	33362	20.41	1.6
51	33512	20.51	1.6
51	33662	20.61	1.6
51	33812	20.71	1.6
51	33962	20.81	1.6
51	34112	20.91	1.6
51	34266	21.01	1.6
51	34416	21.11	1.6
51	34566	21.21	1.6
51	34716	21.31	1.6
51	34866	21.41	1.6
51	35016	21.51	1.6
51	35166	21.61	1.6
51	35316	21.71	1.6
51	35466	21.81	1.6
51	35616	21.91	1.6
51	35770	22.01	1.6
51	35920	22.11	1.6
51	36070	22.21	1.6
51	36220	22.31	1.6
51	36370	22.41	1.6
51	36520	22.51	1.6
51	36670	22.61	1.6
51	36820	22.71	1.6
51	36970	22.81	1.6
51	37120	22.91	1.6
51	37274	23.01	1.6
51	37424	23.11	1.6
51	37574	23.21	1.6
51	37724	23.31	1.6
51	37874	23.41	1.6
51	38024	23.51	1.6
51	38174	23.61	1.6
51	38324	23.71	1.6
51	38474	23.81	1.6
51	38624	23.91	1.6
51	38778	24.01	1.6
51	38928	24.11	1.6
51	39078	24.21	1.6
51	39228	24.31	1.6
51	39378	24.41	1.6
51	39528	24.51	1.6
51	39678	24.61	1.6
51	39828	24.71	1.6
51	39978	24.81	1.6
51	40128	24.91	1.6
51	40282	25.01	1.6
51	40432	25.11	1.6
51	40582	25.21	1.6
51	40732	25.31	1.6
51	40882	25.41	1.6
51	41032	25.51	1.6
51	41182	25.61	1.6
51	41333	25.71	1.6
51	41483	25.81	1.6
51	41633	25.91	1.6
51	41787	26.01	1.6
51	41937	26.11	1.6
51	42087	26.21	1.6
51	42237	26.31	1.6
51	42387	26.41	1.6
51	42537	26.51	1.6
51	42687	26.61	1.6
51	42837	26.71	1.6
51	42987	26.81	1.6
51	43137	26.91	1.6
51	43291	27.01	1.6
51	43441	27.11	1.6
51	43591	27.21	1.6
51	43741	27.31	1.6
51	43891	27.41	1.6
51	44041	27.51	1.6
51	44191	27.61	1.6
51	44341	27.71	1.6
51	44491	27.81	1.6
51	44641	27.91	1.6
51	44795	28.01	1.6
51	44945	28.11	1.6
51	45095	28.21	1.6
51	45245	28.31	1.6
51	45395	28.41	1.6
51	45545	28.51	1.6
51	45695	28.61	1.6
51	45845	28.71	1.6
51	45995	28.81	1.6
51	46145	28.91	1.6
51	46299	29.01	1.6
51	46449	29.11	1.6
51	46599	29.21	1.6
51	46749	29.31	1.6
51	46899	29.41	1.6
51	47049	29.51	1.6
51	47199	29.61	1.6
51	47349	29.71	1.6
51	47499	29.81	1.6
51	47649	29.91	1.6
51	47803	30.01	1.6
51	47953	30.11	1.6
51	48103	30.21	1.6
51	48253	30.31	1.6
51	48403	30.41	1.6
51	48553	30.51	1.6
51	48703	30.61	1.6
51	48853	30.71	1.6
51	49003	30.81	1.6
51	49153	30.91	1.6
51	49307	31.01	1.6
51	49457	31.11	1.6
51	49607	31.21	1.6
51	49757	31.31	1.6
50	26	0.21	492.575
50	176	0.31	490.992
50	326	0.41	489.409
50	476	0.51	487.826
50	626	0.61	486.243
50	776	0.71	484.66
50	926	0.81	483.077
50	1076	0.91	481.494
50	1230	1.01	479.911
50	1381	1.11	478.328
50	1532	1.21	476.744
50	1683	1.31	475.161
50	2046	1.41	473.578
50	2196	1.51	471.995
50	2346	1.61	470.412
50	2496	1.71	468.828
50	2646	1.81	467.245
50	2796	1.91	465.662
50	2950	2.01	464.079
50	3100	2.11	462.495
50	3250	2.21	460.912
50	3400	2.31	459.329
50	3763	2.41	457.745
50	3914	2.51	456.162
50	4064	2.61	454.579
50	4214	2.71	452.995
50	4364	2.81	451.412
50	4514	2.91	449.829
50	4668	3.01	448.245
50	4818	3.11	446.662
50	4968	3.21	445.079
50	5118	3.31	443.495
50	5269	3.41	441.912
50	5676	3.51	440.329
50	5826	3.61	438.745
50	5976	3.71	437.162
50	6126	3.81	435.578
50	6276	3.91	433.995
50	6430	4.01	432.412
50	6580	4.11	430.828
50	6730	4.21	429.245
50	6880	4.31	427.662
50	7030	4.41	426.078
50	7393	4.51	424.495
50	7544	4.61	422.912
50	7694	4.71	421.328
50	7844	4.81	419.745
50	7994	4.91	418.162
50	8148	5.01	416.578
50	8298	5.11	414.995
50	8448	5.21	413.412
50	8598	5.31	411.828
50	8748	5.41	410.245
50	8899	5.51	408.662
50	9262	5.61	407.078
50	9412	5.71	405.495
50	9562	5.81	403.912
50	9712	5.91	402.328
50	9866	6.01	400.745
50	10016	6.11	399.162
50	10166	6.21	397.578
50	10316	6.31	395.995
50	10466	6.41	394.412
50	10616	6.51	392.828
50	11023	6.61	391.245
50	11174	6.71	389.662
50	11324	6.81	388.079
50	11474	6.91	386.495
50	11628	7.01	384.912
50	11778	7.11	383.329
50	11928	7.21	381.745
50	12078	7.31	380.162
50	12228	7.41	378.579
50	12378	7.51	376.995
50	12529	7.61	375.412
50	12892	7.71	373.829
50	13042	7.81	372.245
50	13192	7.91	370.662
50	13346	8.01	369.079
50	13496	8.11	367.495
50	13646	8.21	365.912
50	13796	8.31	364.329
50	13946	8.41	362.745
50	14096	8.51	361.162
50	14246	8.61	359.579
50	14609	8.71	357.995
50	14760	8.81	356.412
50	14910	8.91	354.829
50	15064	9.01	353.245
50	15214	9.11	351.662
50	15364	9.21	350.079
50	15514	9.31	348.495
50	15664	9.41	346.912
50	15814	9.51	345.329
50	15964	9.61	343.745
50	16115	9.71	342.162
50	16522	9.81	340.579
50	16672	9.91	338.995
50	16826	10.01	337.412
50	16976	10.11	335.829
50	17126	10.21	334.245
50	17276	10.31	332.662
50	17426	10.41	331.079
50	17576	10.51	329.495
50	17726	10.61	327.912
50	17876	10.71	326.329
50	18239	10.81	324.745
50	18390	10.91	323.162
50	18544	11.01	321.579
50	18694	11.11	319.995
50	18844	11.21	318.412
50	18994	11.31	316.829
50	19144	11.41	315.245
50	19294	11.51	313.662
50	19444	11.61	312.079
50	19594	11.71	310.495
50	19745	11.81	308.912
50	20108	11.91	307.329
50	20262	12.01	305.745
50	20412	12.11	304.162
50	20562	12.21	302.579
50	20712	12.31	300.995
50	20862	12.41	299.412
50	21012	12.51	297.829
50	21162	12.61	296.245
50	21312	12.71	294.662
50	21462	12.81	293.079
50	21845	12.91	291.495
50	22000	13.01	289.912
50	22150	13.11	288.329
50	22300	13.21	286.745
50	22450	13.31	285.162
50	22600	13.41	283.579
50	22750	13.51	281.995
50	22900	13.61	280.412
50	23050	13.71	278.829
50	23200	13.81	277.245
50	23351	13.91	275.662
50	23738	14.01	274.079
50	23888	14.11	272.495
50	24038	14.21	270.912
50	24188	14.31	269.329
50	24338	14.41	267.745
50	24488	14.51	266.162
50	24638	14.61	264.579
50	24788	14.71	262.995
50	24938	14.81	261.412
50	25088	14.91	259.829
50	25242	15.01	258.245
50	25392	15.11	256.662
50	25542	15.21	255.079
50	25692	15.31	253.495
50	25842	15.41	251.912
50	25992	15.51	250.329
50	26142	15.61	248.745
50	26292	15.71	247.162
50	26442	15.81	245.579
50	26592	15.91	243.995
50	26746	16.01	242.412
50	26896	16.11	240.829
50	27046	16.21	239.245
50	27196	16.31	237.662
50	27346	16.41	236.079
50	27496	16.51	234.495
50	27646	16.61	232.912
50	27796	16.71	231.329
50	27946	16.81	229.746
50	28096	16.91	228.162
50	28250	17.01	226.579
50	28400	17.11	224.996
50	28550	17.21	223.412
50	28700	17.31	221.829
50	28850	17.41	220.246
50	29000	17.51	218.662
50	29150	17.61	217.079
50	29300	17.71	215.496
50	29450	17.81	213.912
50	29600	17.91	212.329
50	29754	18.01	210.746
50	29904	18.11	209.162
50	30054	18.21	207.579
50	30204	18.31	205.996
50	30354	18.41	204.412
50	30504	18.51	202.829
50	30654	18.61	201.246
50	30804	18.71	199.662
50	30954	18.81	198.079
50	31104	18.91	196.496
50	31258	19.01	194.912
50	31408	19.11	193.329
50	31558	19.21	191.746
50	31708	19.31	190.162
50	31858	19.41	188.579
50	32008	19.51	186.996
50	32158	19.61	185.412
50	32308	19.71	183.829
50	32458	19.81	182.246
50	32608	19.91	180.662
50	32762	20.01	179.079
50	32912	20.11	177.496
50	33062	20.21	175.912
50	33212	20.31	174.329
50	33362	20.41	172.746
50	33512	20.51	171.162
50	33662	20.61	169.579
50	33812	20.71	167.996
50	33962	20.81	166.412
50	34112	20.91	164.829
50	34266	21.01	163.246
50	34416	21.11	161.662
50	34566	21.21	160.079
50	34716	21.31	158.496
50	34866	21.41	156.912
50	35016	21.51	155.329
50	35166	21.61	153.746
50	35316	21.71	152.162
50	35466	21.81	150.579
50	35616	21.91	148.996
50	35770	22.01	147.412
50	35920	22.11	145.829
50	36070	22.21	144.246
50	36220	22.31	142.662
50	36370	22.41	141.079
50	36520	22.51	139.496
50	36670	22.61	137.912
50	36820	22.71	136.329
50	36970	22.81	134.746
50	37120	22.91	133.162
50	37274	23.01	131.579
50	37424	23.11	129.996
50	37574	23.21	128.412
50	37724	23.31	126.829
50	37874	23.41	125.246
50	38024	23.51	123.662
50	38174	23.61	122.079
50	38324	23.71	120.496
50	38474	23.81	118.912
50	38624	23.91	117.329
50	38778	24.01	115.746
50	38928	24.11	114.162
50	39078	24.21	112.579
50	39228	24.31	110.996
50	39378	24.41	109.412
50	39528	24.51	107.829
50	39678	24.61	106.246
50	39828	24.71	104.662
50	39978	24.81	103.079
50	40128	24.91	101.496
50	40282	25.01	99.9124
50	40432	25.11	98.3291
50	40582	25.21	96.7458
50	40732	25.31	95.1625
50	40882	25.41	93.5791
50	41032	25.51	91.9958
50	41182	25.61	90.4125
50	41333	25.71	88.8291
50	41483	25.81	87.2458
50	41633	25.91	85.6625
50	41787	26.01	84.0791
50	41937	26.11	82.4958
50	42087	26.21	80.9125
50	42237	26.31	79.3292
50	42387	26.41	77.7458
50	42537	26.51	76.1625
50	42687	26.61	74.5792
50	42837	26.71	72.9958
50	42987	26.81	71.4125
50	43137	26.91	69.8292
50	43291	27.01	68.2458
50	43441	27.11	66.6625
50	43591	27.21	65.0792
50	43741	27.31	63.4959
50	43891	27.41	61.9125
50	44041	27.51	60.3292
50	44191	27.61	58.7459
50	44341	27.71	57.1625
50	44491	27.81	55.5792
50	44641	27.91	53.9959
50	44795	28.01	52.4125
50	44945	28.11	50.8292
50	45095	28.21	49.2459
50	45245	28.31	47.6626
50	45395	28.41	46.0792
50	45545	28.51	44.4959
50	45695	28.61	42.9126
50	45845	28.71	41.3292
50	45995	28.81	39.7459
50	46145	28.91	38.1626
50	46299	29.01	36.5792
50	46449	29.11	34.9959
50	46599	29.21	33.4126
50	46749	29.31	31.8293
50	46899	29.41	30.2459
50	47049	29.51	28.6626
50	47199	29.61	27.0793
50	47349	29.71	25.4959
50	47499	29.81	23.9126
50	47649	29.91	22.3293
50	47803	30.01	20.7459
50	47953	30.11	19.1626
50	48103	30.21	17.5793
50	48253	30.31	15.996
50	48403	30.41	14.4126
50	48553	30.51	12.8293
50	48703	30.61	11.246
50	48853	30.71	9.66264
50	49003	30.81	8.07931
50	49153	30.91	6.49598
50	49307	31.01	4.91265
50	49457	31.11	3.32932
50	49607	31.21	1.74599
50	49757	31.31	0.162656
49	26	0.21	15.83
49	176	0.31	15.8301
49	326	0.41	15.8302
49	476	0.51	15.8304
49	626	0.61	15.8306
49	776	0.71	15.8308
49	926	0.81	15.831
49	1076	0.91	15.8312
49	1230	1.01	15.8314
49	1381	1.11	15.8316
49	1532	1.21	15.8318
49	1683	1.31	15.832
49	2046	1.41	15.8322
49	2196	1.51	15.8323
49	2346	1.61	15.8325
49	2496	1.71	15.8326
49	2646	1.81	15.8328
49	2796	1.91	15.8329
49	2950	2.01	15.833
49	3100	2.11	15.8331
49	3250	2.21	15.8332
49	3400	2.31	15.8332
49	3763	2.41	15.8333
49	3914	2.51	15.8333
49	4064	2.61	15.8334
49	4214	2.71	15.8334
49	4364	2.81	15.8334
49	4514	2.91	15.8334
49	4668	3.01	15.8334
49	4818	3.11	15.8334
49	4968	3.21	15.8334
49	5118	3.31	15.8334
49	5269	3.41	15.8334
49	5676	3.51	15.8334
49	5826	3.61	15.8334
49	5976	3.71	15.8334
49	6126	3.81	15.8334
49	6276	3.91	15.8334
49	6430	4.01	15.8334
49	6580	4.11	15.8334
49	6730	4.21	15.8334
49	6880	4.31	15.8334
49	7030	4.41	15.8334
49	7393	4.51	15.8334
49	7544	4.61	15.8333
49	7694	4.71	15.8333
49	7844	4.81	15.8333
49	7994	4.91	15.8333
49	8148	5.01	15.8333
49	8298	5.11	15.8333
49	8448	5.21	15.8333
49	8598	5.31	15.8333
49	8748	5.41	15.8333
49	8899	5.51	15.8333
49	9262	5.61	15.8333
49	9412	5.71	15.8333
49	9562	5.81	15.8333
49	9712	5.91	15.8333
49	9866	6.01	15.8333
49	10016	6.11	15.8333
49	10166	6.21	15.8333
49	10316	6.31	15.8333
49	10466	6.41	15.8333
49	10616	6.51	15.8333
49	11023	6.61	15.8333
49	11174	6.71	15.8333
49	11324	6.81	15.8333
49	11474	6.91	15.8333
49	11628	7.01	15.8333
49	11778	7.11	15.8333
49	11928	7.21	15.8333
49	12078	7.31	15.8333
49	12228	7.41	15.8333
49	12378	7.51	15.8333
49	12529	7.61	15.8333
49	12892	7.71	15.8333
49	13042	7.81	15.8333
49	13192	7.91	15.8333
49	13346	8.01	15.8333
49	13496	8.11	15.8333
49	13646	8.21	15.8333
49	13796	8.31	15.8333
49	13946	8.41	15.8333
49	14096	8.51	15.8333
49	14246	8.61	15.8333
49	14609	8.71	15.8333
49	14760	8.81	15.8333
49	14910	8.91	15.8333
49	15064	9.01	15.8333
49	15214	9.11	15.8333
49	15364	9.21	15.8333
49	15514	9.31	15.8333
49	15664	9.41	15.8333
49	15814	9.51	15.8333
49	15964	9.61	15.8333
49	16115	9.71	15.8333
49	16522	9.81	15.8333
49	16672	9.91	15.8333
49	16826	10.01	15.8333
49	16976	10.11	15.8333
49	17126	10.21	15.8333
49	17276	10.31	15.8333
49	17426	10.41	15.8333
49	17576	10.51	15.8333
49	17726	10.61	15.8333
49	17876	10.71	15.8333
49	18239	10.81	15.8333
49	18390	10.91	15.8333
49	18544	11.01	15.8333
49	18694	11.11	15.8333
49	18844	11.21	15.8333
49	18994	11.31	15.8333
49	19144	11.41	15.8333
49	19294	11.51	15.8333
49	19444	11.61	15.8333
49	19594	11.71	15.8333
49	19745	11.81	15.8333
49	20108	11.91	15.8333
49	20262	12.01	15.8333
49	20412	12.11	15.8333
49	20562	12.21	15.8333
49	20712	12.31	15.8333
49	20862	12.41	15.8333
49	21012	12.51	15.8333
49	21162	12.61	15.8333
49	21312	12.71	15.8333
49	21462	12.81	15.8333
49	21845	12.91	15.8333
49	22000	13.01	15.8333
49	22150	13.11	15.8333
49	22300	13.21	15.8333
49	22450	13.31	15.8333
49	22600	13.41	15.8333
49	22750	13.51	15.8333
49	22900	13.61	15.8333
49	23050	13.71	15.8333
49	23200	13.81	15.8333
49	23351	13.91	15.8333
49	23738	14.01	15.8333
49	23888	14.11	15.8333
49	24038	14.21	15.8333
49	24188	14.31	15.8333
49	24338	14.41	15.8333
49	24488	14.51	15.8333
49	24638	14.61	15.8333
49	24788	14.71	15.8333
49	24938	14.81	15.8333
49	25088	14.91	15.8333
49	25242	15.01	15.8333
49	25392	15.11	15.8333
49	25542	15.21	15.8333
49	25692	15.31	15.8333
49	25842	15.41	15.8333
49	25992	15.51	15.8333
49	26142	15.61	15.8333
49	26292	15.71	15.8333
49	26442	15.81	15.8333
49	26592	15.91	15.8333
49	26746	16.01	15.8333
49	26896	16.11	15.8333
49	27046	16.21	15.8333
49	27196	16.31	15.8333
49	27346	16.41	15.8333
49	27496	16.51	15.8333
49	27646	16.61	15.8333
49	27796	16.71	15.8333
49	27946	16.81	15.8333
49	28096	16.91	15.8333
49	28250	17.01	15.8333
49	28400	17.11	15.8333
49	28550	17.21	15.8333
49	28700	17.31	15.8333
49	28850	17.41	15.8333
49	29000	17.51	15.8333
49	29150	17.61	15.8333
49	29300	17.71	15.8333
49	29450	17.81	15.8333
49	29600	17.91	15.8333
49	29754	18.01	15.8333
49	29904	18.11	15.8333
49	30054	18.21	15.8333
49	30204	18.31	15.8333
49	30354	18.41	15.8333
49	30504	18.51	15.8333
49	30654	18.61	15.8333
49	30804	18.71	15.8333
49	30954	18.81	15.8333
49	31104	18.91	15.8333
49	31258	19.01	15.8333
49	31408	19.11	15.8333
49	31558	19.21	15.8333
49	31708	19.31	15.8333
49	31858	19.41	15.8333
49	32008	19.51	15.8333
49	32158	19.61	15.8333
49	32308	19.71	15.8333
49	32458	19.81	15.8333
49	32608	19.91	15.8333
49	32762	20.01	15.8333
49	32912	20.11	15.8333
49	33062	20.21	15.8333
49	33212	20.31	15.8333
49	33362	20.41	15.8333
49	33512	20.51	15.8333
49	33662	20.61	15.8333
49	33812	20.71	15.8333
49	33962	20.81	15.8333
49	34112	20.91	15.8333
49	34266	21.01	15.8333
49	34416	21.11	15.8333
49	34566	21.21	15.8333
49	34716	21.31	15.8333
49	34866	21.41	15.8333
49	35016	21.51	15.8333
49	35166	21.61	15.8333
49	35316	21.71	15.8333
49	35466	21.81	15.8333
49	35616	21.91	15.8333
49	35770	22.01	15.8333
49	35920	22.11	15.8333
49	36070	22.21	15.8333
49	36220	22.31	15.8333
49	36370	22.41	15.8333
49	36520	22.51	15.8333
49	36670	22.61	15.8333
49	36820	22.71	15.8333
49	36970	22.81	15.8333
49	37120	22.91	15.8333
49	37274	23.01	15.8333
49	37424	23.11	15.8333
49	37574	23.21	15.8333
49	37724	23.31	15.8333
49	37874	23.41	15.8333
49	38024	23.51	15.8333
49	38174	23.61	15.8333
49	38324	23.71	15.8333
49	38474	23.81	15.8333
49	38624	23.91	15.8333
49	38778	24.01	15.8333
49	38928	24.11	15.8333
49	39078	24.21	15.8333
49	39228	24.31	15.8333
49	39378	24.41	15.8333
49	39528	24.51	15.8333
49	39678	24.61	15.8333
49	39828	24.71	15.8333
49	39978	24.81	15.8333
49	40128	24.91	15.8333
49	40282	25.01	15.8333
49	40432	25.11	15.8333
49	40582	25.21	15.8333
49	40732	25.31	15.8333
49	40882	25.41	15.8333
49	41032	25.51	15.8333
49	41182	25.61	15.8333
49	41333	25.71	15.8333
49	41483	25.81	15.8333
49	41633	25.91	15.8333
49	41787	26.01	15.8333
49	41937	26.11	15.8333
49	42087	26.21	15.8333
49	42237	26.31	15.8333
49	42387	26.41	15.8333
49	42537	26.51	15.8333
49	42687	26.61	15.8333
49	42837	26.71	15.8333
49	42987	26.81	15.8333
49	43137	26.91	15.8333
49	43291	27.01	15.8333
49	43441	27.11	15.8333
49	43591	27.21	15.8333
49	43741	27.31	15.8333
49	43891	27.41	15.8333
49	44041	27.51	15.8333
49	44191	27.61	15.8333
49	44341	27.71	15.8333
49	44491	27.81	15.8333
49	44641	27.91	15.8333
49	44795	28.01	15.8333
49	44945	28.11	15.8333
49	45095	28.21	15.8333
49	45245	28.31	15.8333
49	45395	28.41	15.8333
49	45545	28.51	15.8333
49	45695	28.61	15.8333
49	45845	28.71	15.8333
49	45995	28.81	15.8333
49	46145	28.91	15.8333
49	46299	29.01	15.8333
49	46449	29.11	15.8333
49	46599	29.21	15.8333
49	46749	29.31	15.8333
49	46899	29.41	15.8333
49	47049	29.51	15.8333
49	47199	29.61	15.8333
49	47349	29.71	15.8333
49	47499	29.81	15.8333
49	47649	29.91	15.8333
49	47803	30.01	15.8333
49	47953	30.11	15.8333
49	48103	30.21	15.8333
49	48253	30.31	15.8333
49	48403	30.41	15.8333
49	48553	30.51	15.8333
49	48703	30.61	15.8333
49	48853	30.71	15.8333
49	49003	30.81	15.8333
49	49153	30.91	15.8333
49	49307	31.01	15.8333
49	49457	31.11	15.8333
49	49607	31.21	15.8333
49	49757	31.31	15.8333
45	26	0.21	0
45	176	0.31	0
45	326	0.41	0
45	476	0.51	0
45	626	0.61	0
45	776	0.71	0
45	926	0.81	0
45	1076	0.91	0
45	1230	1.01	0
45	1381	1.11	0
45	1532	1.21	0
45	1683	1.31	0
45	2046	1.41	0
45	2196	1.51	0
45	2346	1.61	0
45	2496	1.71	0
45	2646	1.81	0
45	2796	1.91	0
45	2950	2.01	0
45	3100	2.11	0
45	3250	2.21	0
45	3400	2.31	0
45	3763	2.41	0
45	3914	2.51	0
45	4064	2.61	0
45	4214	2.71	0
45	4364	2.81	0
45	4514	2.91	0
45	4668	3.01	0
45	4818	3.11	0
45	4968	3.21	0
45	5118	3.31	0
45	5269	3.41	0
45	5676	3.51	0
45	5826	3.61	0
45	5976	3.71	0
45	6126	3.81	0
45	6276	3.91	0
45	6430	4.01	0
45	6580	4.11	0
45	6730	4.21	0
45	6880	4.31	0
45	7030	4.41	0
45	7393	4.51	0
45	7544	4.61	0
45	7694	4.71	0
45	7844	4.81	0
45	7994	4.91	0
45	8148	5.01	0
45	8298	5.11	0
45	8448	5.21	0
45	8598	5.31	0
45	8748	5.41	0
45	8899	5.51	0
45	9262	5.61	0
45	9412	5.71	0
45	9562	5.81	0
45	9712	5.91	0
45	9866	6.01	0
45	10016	6.11	0
45	10166	6.21	0
45	10316	6.31	0
45	10466	6.41	0
45	10616	6.51	0
45	11023	6.61	0
45	11174	6.71	0
45	11324	6.81	0
45	11474	6.91	0
45	11628	7.01	0
45	11778	7.11	0
45	11928	7.21	0
45	12078	7.31	0
45	12228	7.41	0
45	12378	7.51	0
45	12529	7.61	0
45	12892	7.71	0
45	13042	7.81	0
45	13192	7.91	0
45	13346	8.01	0
45	13496	8.11	0
45	13646	8.21	0
45	13796	8.31	0
45	13946	8.41	0
45	14096	8.51	0
45	14246	8.61	0
45	14609	8.71	0
45	14760	8.81	0
45	14910	8.91	0
45	15064	9.01	0
45	15214	9.11	0
45	15364	9.21	0
45	15514	9.31	0
45	15664	9.41	0
45	15814	9.51	0
45	15964	9.61	0
45	16115	9.71	0
45	16522	9.81	0
45	16672	9.91	0
45	16826	10.01	0
45	16976	10.11	0
45	17126	10.21	0
45	17276	10.31	0
45	17426	10.41	0
45	17576	10.51	0
45	17726	10.61	0
45	17876	10.71	0
45	18239	10.81	0
45	18390	10.91	0
45	18544	11.01	0
45	18694	11.11	0
45	18844	11.21	0
45	18994	11.31	0
45	19144	11.41	0
45	19294	11.51	0
45	19444	11.61	0
45	19594	11.71	0
45	19745	11.81	0
45	20108	11.91	0
45	20262	12.01	0
45	20412	12.11	0
45	20562	12.21	0
45	20712	12.31	0
45	20862	12.41	0
45	21012	12.51	0
45	21162	12.61	0
45	21312	12.71	0
45	21462	12.81	0
45	21845	12.91	0
45	22000	13.01	0
45	22150	13.11	0
45	22300	13.21	0
45	22450	13.31	0
45	22600	13.41	0
45	22750	13.51	0
45	22900	13.61	0
45	23050	13.71	0
45	23200	13.81	0
45	23351	13.91	0
45	23738	14.01	0
45	23888	14.11	0
45	24038	14.21	0
45	24188	14.31	0
45	24338	14.41	0
45	24488	14.51	0
45	24638	14.61	0
45	24788	14.71	0
45	24938	14.81	0
45	25088	14.91	0
45	25242	15.01	0
45	25392	15.11	0
45	25542	15.21	0
45	25692	15.31	0
45	25842	15.41	0
45	25992	15.51	0
45	26142	15.61	0
45	26292	15.71	0
45	26442	15.81	0
45	26592	15.91	0
45	26746	16.01	0
45	26896	16.11	0
45	27046	16.21	0
45	27196	16.31	0
45	27346	16.41	0
45	27496	16.51	0
45	27646	16.61	0
45	27796	16.71	0
45	27946	16.81	0
45	28096	16.91	0
45	28250	17.01	0
45	28400	17.11	0
45	28550	17.21	0
45	28700	17.31	0
45	28850	17.41	0
45	29000	17.51	0
45	29150	17.61	0
45	29300	17.71	0
45	29450	17.81	0
45	29600	17.91	0
45	29754	18.01	0
45	29904	18.11	0
45	30054	18.21	0
45	30204	18.31	0
45	30354	18.41	0
45	30504	18.51	0
45	30654	18.61	0
45	30804	18.71	0
45	30954	18.81	0
45	31104	18.91	0
45	31258	19.01	0
45	31408	19.11	0
45	31558	19.21	0
45	31708	19.31	0
45	31858	19.41	0
45	32008	19.51	0
45	32158	19.61	0
45	32308	19.71	0
45	32458	19.81	0
45	32608	19.91	0
45	32762	20.01	0
45	32912	20.11	0
45	33062	20.21	0
45	33212	20.31	0
45	33362	20.41	0
45	33512	20.51	0
45	33662	20.61	0
45	33812	20.71	0
45	33962	20.81	0
45	34112	20.91	0
45	34266	21.01	0
45	34416	21.11	0
45	34566	21.21	0
45	34716	21.31	0
45	34866	21.41	0
45	35016	21.51	0
45	35166	21.61	0
45	35316	21.71	0
45	35466	21.81	0
45	35616	21.91	0
45	35770	22.01	0
45	35920	22.11	0
45	36070	22.21	0
45	36220	22.31	0
45	36370	22.41	0
45	36520	22.51	0
45	36670	22.61	0
45	36820	22.71	0
45	36970	22.81	0
45	37120	22.91	0
45	37274	23.01	0
45	37424	23.11	0
45	37574	23.21	0
45	37724	23.31	0
45	37874	23.41	0
45	38024	23.51	0
45	38174	23.61	0
45	38324	23.71	0
45	38474	23.81	0
45	38624	23.91	0
45	38778	24.01	0
45	38928	24.11	0
45	39078	24.21	0
45	39228	24.31	0
45	39378	24.41	0
45	39528	24.51	0
45	39678	24.61	0
45	39828	24.71	0
45	39978	24.81	0
45	40128	24.91	0
45	40282	25.01	0
45	40432	25.11	0
45	40582	25.21	0
45	40732	25.31	0
45	40882	25.41	0
45	41032	25.51	0
45	41182	25.61	0
45	41333	25.71	0
45	41483	25.81	0
45	41633	25.91	0
45	41787	26.01	0
45	41937	26.11	0
45	42087	26.21	0
45	42237	26.31	0
45	42387	26.41	0
45	42537	26.51	0
45	42687	26.61	0
45	42837	26.71	0
45	42987	26.81	0
45	43137	26.91	0
45	43291	27.01	0
45	43441	27.11	0
45	43591	27.21	0
45	43741	27.31	0
45	43891	27.41	0
45	44041	27.51	0
45	44191	27.61	0
45	44341	27.71	0
45	44491	27.81	0
45	44641	27.91	0
45	44795	28.01	0
45	44945	28.11	0
45	45095	28.21	0
45	45245	28.31	0
45	45395	28.41	0
45	45545	28.51	0
45	45695	28.61	0
45	45845	28.71	0
45	45995	28.81	0
45	46145	28.91	0
45	46299	29.01	0
45	46449	29.11	0
45	46599	29.21	0
45	46749	29.31	0
45	46899	29.41	0
45	47049	29.51	0
45	47199	29.61	0
45	47349	29.71	0
45	47499	29.81	0
45	47649	29.91	0
45	47803	30.01	0
45	47953	30.11	0
45	48103	30.21	0
45	48253	30.31	0
45	48403	30.41	0
45	48553	30.51	0
45	48703	30.61	0
45	48853	30.71	0
45	49003	30.81	0
45	49153	30.91	0
45	49307	31.01	0
45	49457	31.11	0
45	49607	31.21	0
45	49757	31.31	0
44	26	0.21	-1
44	176	0.31	-1
44	326	0.41	-1
44	476	0.51	-1
44	626	0.61	-1
44	776	0.71	-1
44	926	0.81	-1
44	1076	0.91	-1
44	1230	1.01	-1
44	1381	1.11	-1
44	1532	1.21	-1
44	1683	1.31	-1
44	2046	1.41	-1
44	2196	1.51	-1
44	2346	1.61	-1
44	2496	1.71	-1
44	2646	1.81	-1
44	2796	1.91	-1
44	2950	2.01	-1
44	3100	2.11	-1
44	3250	2.21	-1
44	3400	2.31	-1
44	3763	2.41	-1
44	3914	2.51	-1
44	4064	2.61	-1
44	4214	2.71	-1
44	4364	2.81	-1
44	4514	2.91	-1
44	4668	3.01	-1
44	4818	3.11	-1
44	4968	3.21	-1
44	5118	3.31	-1
44	5269	3.41	-1
44	5676	3.51	-1
44	5826	3.61	-1
44	5976	3.71	-1
44	6126	3.81	-1
44	6276	3.91	-1
44	6430	4.01	-1
44	6580	4.11	-1
44	6730	4.21	-1
44	6880	4.31	-1
44	7030	4.41	-1
44	7393	4.51	-1
44	7544	4.61	-1
44	7694	4.71	-1
44	7844	4.81	-1
44	7994	4.91	-1
44	8148	5.01	-1
44	8298	5.11	-1
44	8448	5.21	-1
44	8598	5.31	-1
44	8748	5.41	-1
44	8899	5.51	-1
44	9262	5.61	-1
44	9412	5.71	-1
44	9562	5.81	-1
44	9712	5.91	-1
44	9866	6.01	-1
44	10016	6.11	-1
44	10166	6.21	-1
44	10316	6.31	-1
44	10466	6.41	-1
44	10616	6.51	-1
44	11023	6.61	-1
44	11174	6.71	-1
44	11324	6.81	-1
44	11474	6.91	-1
44	11628	7.01	-1
44	11778	7.11	-1
44	11928	7.21	-1
44	12078	7.31	-1
44	12228	7.41	-1
44	12378	7.51	-1
44	12529	7.61	-1
44	12892	7.71	-1
44	13042	7.81	-1
44	13192	7.91	-1
44	13346	8.01	-1
44	13496	8.11	-1
44	13646	8.21	-1
44	13796	8.31	-1
44	13946	8.41	-1
44	14096	8.51	-1
44	14246	8.61	-1
44	14609	8.71	-1
44	14760	8.81	-1
44	14910	8.91	-1
44	15064	9.01	-1
44	15214	9.11	-1
44	15364	9.21	-1
44	15514	9.31	-1
44	15664	9.41	-1
44	15814	9.51	-1
44	15964	9.61	-1
44	16115	9.71	-1
44	16522	9.81	-1
44	16672	9.91	-1
44	16826	10.01	-1
44	16976	10.11	-1
44	17126	10.21	-1
44	17276	10.31	-1
44	17426	10.41	-1
44	17576	10.51	-1
44	17726	10.61	-1
44	17876	10.71	-1
44	18239	10.81	-1
44	18390	10.91	-1
44	18544	11.01	-1
44	18694	11.11	-1
44	18844	11.21	-1
44	18994	11.31	-1
44	19144	11.41	-1
44	19294	11.51	-1
44	19444	11.61	-1
44	19594	11.71	-1
44	19745	11.81	-1
44	20108	11.91	-1
44	20262	12.01	-1
44	20412	12.11	-1
44	20562	12.21	-1
44	20712	12.31	-1
44	20862	12.41	-1
44	21012	12.51	-1
44	21162	12.61	-1
44	21312	12.71	-1
44	21462	12.81	-1
44	21845	12.91	-1
44	22000	13.01	-1
44	22150	13.11	-1
44	22300	13.21	-1
44	22450	13.31	-1
44	22600	13.41	-1
44	22750	13.51	-1
44	22900	13.61	-1
44	23050	13.71	-1
44	23200	13.81	-1
44	23351	13.91	-1
44	23738	14.01	-1
44	23888	14.11	-1
44	24038	14.21	-1
44	24188	14.31	-1
44	24338	14.41	-1
44	24488	14.51	-1
44	24638	14.61	-1
44	24788	14.71	-1
44	24938	14.81	-1
44	25088	14.91	-1
44	25242	15.01	-1
44	25392	15.11	-1
44	25542	15.21	-1
44	25692	15.31	-1
44	25842	15.41	-1
44	25992	15.51	-1
44	26142	15.61	-1
44	26292	15.71	-1
44	26442	15.81	-1
44	26592	15.91	-1
44	26746	16.01	-1
44	26896	16.11	-1
44	27046	16.21	-1
44	27196	16.31	-1
44	27346	16.41	-1
44	27496	16.51	-1
44	27646	16.61	-1
44	27796	16.71	-1
44	27946	16.81	-1
44	28096	16.91	-1
44	28250	17.01	-1
44	28400	17.11	-1
44	28550	17.21	-1
44	28700	17.31	-1
44	28850	17.41	-1
44	29000	17.51	-1
44	29150	17.61	-1
44	29300	17.71	-1
44	29450	17.81	-1
44	29600	17.91	-1
44	29754	18.01	-1
44	29904	18.11	-1
44	30054	18.21	-1
44	30204	18.31	-1
44	30354	18.41	-1
44	30504	18.51	-1
44	30654	18.61	-1
44	30804	18.71	-1
44	30954	18.81	-1
44	31104	18.91	-1
44	31258	19.01	-1
44	31408	19.11	-1
44	31558	19.21	-1
44	31708	19.31	-1
44	31858	19.41	-1
44	32008	19.51	-1
44	32158	19.61	-1
44	32308	19.71	-1
44	32458	19.81	-1
44	32608	19.91	-1
44	32762	20.01	-1
44	32912	20.11	-1
44	33062	20.21	-1
44	33212	20.31	-1
44	33362	20.41	-1
44	33512	20.51	-1
44	33662	20.61	-1
44	33812	20.71	-1
44	33962	20.81	-1
44	34112	20.91	-1
44	34266	21.01	-1
44	34416	21.11	-1
44	34566	21.21	-1
44	34716	21.31	-1
44	34866	21.41	-1
44	35016	21.51	-1
44	35166	21.61	-1
44	35316	21.71	-1
44	35466	21.81	-1
44	35616	21.91	-1
44	35770	22.01	-1
44	35920	22.11	-1
44	36070	22.21	-1
44	36220	22.31	-1
44	36370	22.41	-1
44	36520	22.51	-1
44	36670	22.61	-1
44	36820	22.71	-1
44	36970	22.81	-1
44	37120	22.91	-1
44	37274	23.01	-1
44	37424	23.11	-1
44	37574	23.21	-1
44	37724	23.31	-1
44	37874	23.41	-1
44	38024	23.51	-1
44	38174	23.61	-1
44	38324	23.71	-1
44	38474	23.81	-1
44	38624	23.91	-1
44	38778	24.01	-1
44	38928	24.11	-1
44	39078	24.21	-1
44	39228	24.31	-1
44	39378	24.41	-1
44	39528	24.51	-1
44	39678	24.61	-1
44	39828	24.71	-1
44	39978	24.81	-1
44	40128	24.91	-1
44	40282	25.01	-1
44	40432	25.11	-1
44	40582	25.21	-1
44	40732	25.31	-1
44	40882	25.41	-1
44	41032	25.51	-1
44	41182	25.61	-1
44	41333	25.71	-1
44	41483	25.81	-1
44	41633	25.91	-1
44	41787	26.01	-1
44	41937	26.11	-1
44	42087	26.21	-1
44	42237	26.31	-1
44	42387	26.41	-1
44	42537	26.51	-1
44	42687	26.61	-1
44	42837	26.71	-1
44	42987	26.81	-1
44	43137	26.91	-1
44	43291	27.01	-1
44	43441	27.11	-1
44	43591	27.21	-1
44	43741	27.31	-1
44	43891	27.41	-1
44	44041	27.51	-1
44	44191	27.61	-1
44	44341	27.71	-1
44	44491	27.81	-1
44	44641	27.91	-1
44	44795	28.01	-1
44	44945	28.11	-1
44	45095	28.21	-1
44	45245	28.31	-1
44	45395	28.41	-1
44	45545	28.51	-1
44	45695	28.61	-1
44	45845	28.71	-1
44	45995	28.81	-1
44	46145	28.91	-1
44	46299	29.01	-1
44	46449	29.11	-1
44	46599	29.21	-1
44	46749	29.31	-1
44	46899	29.41	-1
44	47049	29.51	-1
44	47199	29.61	-1
44	47349	29.71	-1
44	47499	29.81	-1
44	47649	29.91	-1
44	47803	30.01	-1
44	47953	30.11	-1
44	48103	30.21	-1
44	48253	30.31	-1
44	48403	30.41	-1
44	48553	30.51	-1
44	48703	30.61	-1
44	48853	30.71	-1
44	49003	30.81	-1
44	49153	30.91	-1
44	49307	31.01	-1
44	49457	31.11	-1
44	49607	31.21	-1
44	49757	31.31	-1
46	26	0.21	3
46	176	0.31	3
46	326	0.41	3
46	476	0.51	3
46	626	0.61	3
46	776	0.71	3
46	926	0.81	3
46	1076	0.91	3
46	1230	1.01	3
46	1381	1.11	3
46	1532	1.21	3
46	1683	1.31	3
46	2046	1.41	3
46	2196	1.51	3
46	2346	1.61	3
46	2496	1.71	3
46	2646	1.81	3
46	2796	1.91	3
46	2950	2.01	3
46	3100	2.11	3
46	3250	2.21	3
46	3400	2.31	3
46	3763	2.41	3
46	3914	2.51	3
46	4064	2.61	3
46	4214	2.71	3
46	4364	2.81	3
46	4514	2.91	3
46	4668	3.01	3
46	4818	3.11	3
46	4968	3.21	3
46	5118	3.31	3
46	5269	3.41	3
46	5676	3.51	3
46	5826	3.61	3
46	5976	3.71	3
46	6126	3.81	3
46	6276	3.91	3
46	6430	4.01	3
46	6580	4.11	3
46	6730	4.21	3
46	6880	4.31	3
46	7030	4.41	3
46	7393	4.51	3
46	7544	4.61	3
46	7694	4.71	3
46	7844	4.81	3
46	7994	4.91	3
46	8148	5.01	3
46	8298	5.11	3
46	8448	5.21	3
46	8598	5.31	3
46	8748	5.41	3
46	8899	5.51	3
46	9262	5.61	3
46	9412	5.71	3
46	9562	5.81	3
46	9712	5.91	3
46	9866	6.01	3
46	10016	6.11	3
46	10166	6.21	3
46	10316	6.31	3
46	10466	6.41	3
46	10616	6.51	3
46	11023	6.61	3
46	11174	6.71	3
46	11324	6.81	3
46	11474	6.91	3
46	11628	7.01	3
46	11778	7.11	3
46	11928	7.21	3
46	12078	7.31	3
46	12228	7.41	3
46	12378	7.51	3
46	12529	7.61	3
46	12892	7.71	3
46	13042	7.81	3
46	13192	7.91	3
46	13346	8.01	3
46	13496	8.11	3
46	13646	8.21	3
46	13796	8.31	3
46	13946	8.41	3
46	14096	8.51	3
46	14246	8.61	3
46	14609	8.71	3
46	14760	8.81	3
46	14910	8.91	3
46	15064	9.01	3
46	15214	9.11	3
46	15364	9.21	3
46	15514	9.31	3
46	15664	9.41	3
46	15814	9.51	3
46	15964	9.61	3
46	16115	9.71	3
46	16522	9.81	3
46	16672	9.91	3
46	16826	10.01	3
46	16976	10.11	3
46	17126	10.21	3
46	17276	10.31	3
46	17426	10.41	3
46	17576	10.51	3
46	17726	10.61	3
46	17876	10.71	3
46	18239	10.81	3
46	18390	10.91	3
46	18544	11.01	3
46	18694	11.11	3
46	18844	11.21	3
46	18994	11.31	3
46	19144	11.41	3
46	19294	11.51	3
46	19444	11.61	3
46	19594	11.71	3
46	19745	11.81	3
46	20108	11.91	3
46	20262	12.01	3
46	20412	12.11	3
46	20562	12.21	3
46	20712	12.31	3
46	20862	12.41	3
46	21012	12.51	3
46	21162	12.61	3
46	21312	12.71	3
46	21462	12.81	3
46	21845	12.91	3
46	22000	13.01	3
46	22150	13.11	3
46	22300	13.21	3
46	22450	13.31	3
46	22600	13.41	3
46	22750	13.51	3
46	22900	13.61	3
46	23050	13.71	3
46	23200	13.81	3
46	23351	13.91	3
46	23738	14.01	3
46	23888	14.11	3
46	24038	14.21	3
46	24188	14.31	3
46	24338	14.41	3
46	24488	14.51	3
46	24638	14.61	3
46	24788	14.71	3
46	24938	14.81	3
46	25088	14.91	3
46	25242	15.01	3
46	25392	15.11	3
46	25542	15.21	3
46	25692	15.31	3
46	25842	15.41	3
46	25992	15.51	3
46	26142	15.61	3
46	26292	15.71	3
46	26442	15.81	3
46	26592	15.91	3
46	26746	16.01	3
46	26896	16.11	3
46	27046	16.21	3
46	27196	16.31	3
46	27346	16.41	3
46	27496	16.51	3
46	27646	16.61	3
46	27796	16.71	3
46	27946	16.81	3
46	28096	16.91	3
46	28250	17.01	3
46	28400	17.11	3
46	28550	17.21	3
46	28700	17.31	3
46	28850	17.41	3
46	29000	17.51	3
46	29150	17.61	3
46	29300	17.71	3
46	29450	17.81	3
46	29600	17.91	3
46	29754	18.01	3
46	29904	18.11	3
46	30054	18.21	3
46	30204	18.31	3
46	30354	18.41	3
46	30504	18.51	3
46	30654	18.61	3
46	30804	18.71	3
46	30954	18.81	3
46	31104	18.91	3
46	31258	19.01	3
46	31408	19.11	3
46	31558	19.21	3
46	31708	19.31	3
46	31858	19.41	3
46	32008	19.51	3
46	32158	19.61	3
46	32308	19.71	3
46	32458	19.81	3
46	32608	19.91	3
46	32762	20.01	3
46	32912	20.11	3
46	33062	20.21	3
46	33212	20.31	3
46	33362	20.41	3
46	33512	20.51	3
46	33662	20.61	3
46	33812	20.71	3
46	33962	20.81	3
46	34112	20.91	3
46	34266	21.01	3
46	34416	21.11	3
46	34566	21.21	3
46	34716	21.31	3
46	34866	21.41	3
46	35016	21.51	3
46	35166	21.61	3
46	35316	21.71	3
46	35466	21.81	3
46	35616	21.91	3
46	35770	22.01	3
46	35920	22.11	3
46	36070	22.21	3
46	36220	22.31	3
46	36370	22.41	3
46	36520	22.51	3
46	36670	22.61	3
46	36820	22.71	3
46	36970	22.81	3
46	37120	22.91	3
46	37274	23.01	3
46	37424	23.11	3
46	37574	23.21	3
46	37724	23.31	3
46	37874	23.41	3
46	38024	23.51	3
46	38174	23.61	3
46	38324	23.71	3
46	38474	23.81	3
46	38624	23.91	3
46	38778	24.01	3
46	38928	24.11	3
46	39078	24.21	3
46	39228	24.31	3
46	39378	24.41	3
46	39528	24.51	3
46	39678	24.61	3
46	39828	24.71	3
46	39978	24.81	3
46	40128	24.91	3
46	40282	25.01	3
46	40432	25.11	3
46	40582	25.21	3
46	40732	25.31	3
46	40882	25.41	3
46	41032	25.51	3
46	41182	25.61	3
46	41333	25.71	3
46	41483	25.81	3
46	41633	25.91	3
46	41787	26.01	3
46	41937	26.11	3
46	42087	26.21	3
46	42237	26.31	3
46	42387	26.41	3
46	42537	26.51	3
46	42687	26.61	3
46	42837	26.71	3
46	42987	26.81	3
46	43137	26.91	3
46	43291	27.01	3
46	43441	27.11	3
46	43591	27.21	3
46	43741	27.31	3
46	43891	27.41	3
46	44041	27.51	3
46	44191	27.61	3
46	44341	27.71	3
46	44491	27.81	3
46	44641	27.91	3
46	44795	28.01	3
46	44945	28.11	3
46	45095	28.21	3
46	45245	28.31	3
46	45395	28.41	3
46	45545	28.51	3
46	45695	28.61	3
46	45845	28.71	3
46	45995	28.81	3
46	46145	28.91	3
46	46299	29.01	3
46	46449	29.11	3
46	46599	29.21	3
46	46749	29.31	3
46	46899	29.41	3
46	47049	29.51	3
46	47199	29.61	3
46	47349	29.71	3
46	47499	29.81	3
46	47649	29.91	3
46	47803	30.01	3
46	47953	30.11	3
46	48103	30.21	3
46	48253	30.31	3
46	48403	30.41	3
46	48553	30.51	3
46	48703	30.61	3
46	48853	30.71	3
46	49003	30.81	3
46	49153	30.91	3
46	49307	31.01	3
46	49457	31.11	3
46	49607	31.21	3
46	49757	31.31	3
67	1191	1	0
67	2911	2	0
67	4629	3	0
67	6391	4	0
67	8109	5	0
67	9827	6	0
67	11589	7	0
67	13307	8	0
67	15025	9	0
67	16787	10	0
67	18505	11	0
67	20223	12	0
67	21961	13	0
67	23699	14	0
67	25203	15	0
67	26707	16	0
67	28211	17	0
67	29715	18	0
67	31219	19	0
67	32723	20	0
67	34227	21	0
67	35731	22	0
67	37235	23	0
67	38739	24	0
67	40243	25	0
67	41748	26	0
67	43252	27	0
67	44756	28	0
67	46260	29	0
67	47764	30	0
67	49268	31	0
66	1191	1	0.009679
66	2911	2	0.013005628974
66	4629	3	0.01300537218
66	6391	4	0.01305313253
66	8109	5	0.013004898094
66	9827	6	0.013004665492
66	11589	7	0.013147434676
66	13307	8	0.01300420593
66	15025	9	0.013003979246
66	16787	10	0.01314675445
66	18505	11	0.013003531376
66	20223	12	0.013003309966
66	21961	13	0.013003091382
66	23699	14	0.013003132056
66	25203	15	0.01249
66	26707	16	0.01249
66	28211	17	0.01249
66	29715	18	0.01249
66	31219	19	0.01249
66	32723	20	0.01249
66	34227	21	0.01249
66	35731	22	0.01249
66	37235	23	0.01249
66	38739	24	0.01249
66	40243	25	0.01249
66	41748	26	0.01249
66	43252	27	0.01249
66	44756	28	0.01249
66	46260	29	0.01249
66	47764	30	0.01249
66	49268	31	0.01249
65	1191	1	3
65	2911	2	3
65	4629	3	3
65	6391	4	3
65	8109	5	3
65	9827	6	3
65	11589	7	3
65	13307	8	3
65	15025	9	3
65	16787	10	3
65	18505	11	3
65	20223	12	3
65	21961	13	3
65	23699	14	3
65	25203	15	3
65	26707	16	3
65	28211	17	3
65	29715	18	3
65	31219	19	3
65	32723	20	3
65	34227	21	3
65	35731	22	3
65	37235	23	3
65	38739	24	3
65	40243	25	3
65	41748	26	3
65	43252	27	3
65	44756	28	3
65	46260	29	3
65	47764	30	3
65	49268	31	3
19	15	0.13	2.240578848106
19	16	0.14	2.2408161980702
19	17	0.15	2.2410488279274
19	18	0.16	2.2412767846408
19	19	0.17	2.2415001151681
19	20	0.18	2.2417188664509
19	21	0.19	2.2419330854078
19	22	0.2	2.2421428189249
19	27	0.21	2.2423481138478
19	62	0.22	2.2425490169717
19	97	0.23	2.2427455750354
19	98	0.24	2.2429378347121
19	99	0.25	2.2431258426007
19	134	0.26	2.2433096452199
19	135	0.27	2.2434892889993
19	136	0.28	2.2436648202737
19	137	0.29	2.2438362852743
19	138	0.3	2.2440037301218
19	177	0.31	2.2441672008206
19	212	0.32	2.2443267432509
19	247	0.33	2.2444824031634
19	248	0.34	2.2446342261724
19	249	0.35	2.2447822577488
19	284	0.36	2.2449265432147
19	285	0.37	2.2450671277376
19	286	0.38	2.2452040563251
19	287	0.39	2.2453373738167
19	288	0.4	2.2454671248818
19	327	0.41	2.2455933540121
19	362	0.42	2.245716105517
19	397	0.43	2.245835423518
19	398	0.44	2.2459513519448
19	399	0.45	2.2460639345295
19	434	0.46	2.2461732148023
19	435	0.47	2.2462792360869
19	436	0.48	2.2463820414966
19	437	0.49	2.2464816739291
19	438	0.5	2.2465781760627
19	477	0.51	2.2466715903521
19	512	0.52	2.2467619590249
19	547	0.53	2.2468493240774
19	548	0.54	2.2469337272716
19	549	0.55	2.2470152101305
19	584	0.56	2.247093813935
19	585	0.57	2.2471695797217
19	586	0.58	2.2472425482782
19	587	0.59	2.2473127601408
19	588	0.6	2.2473802555906
19	627	0.61	2.247445074652
19	662	0.62	2.2475072570889
19	697	0.63	2.2475668424029
19	698	0.64	2.2476238698291
19	699	0.65	2.2476783783351
19	734	0.66	2.2477304066189
19	735	0.67	2.2477799931043
19	736	0.68	2.2478271759422
19	737	0.69	2.2478719930051
19	738	0.7	2.2479144818875
19	777	0.71	2.247954679903
19	812	0.72	2.2479926240826
19	847	0.73	2.2480283511723
19	848	0.74	2.2480618976341
19	849	0.75	2.2480932996406
19	884	0.76	2.2481225930763
19	885	0.77	2.2481498135359
19	886	0.78	2.2481749963228
19	887	0.79	2.2481981764461
19	888	0.8	2.2482193886227
19	927	0.81	2.248238667274
19	962	0.82	2.2482560465259
19	997	0.83	2.2482715602069
19	998	0.84	2.2482852418489
19	999	0.85	2.2482971246851
19	1034	0.86	2.2483072416491
19	1035	0.87	2.2483156253761
19	1036	0.88	2.2483223082006
19	1037	0.89	2.2483273221574
19	1038	0.9	2.2483306989793
19	1077	0.91	2.2483324700986
19	1112	0.92	2.2483326666464
19	1147	0.93	2.2483313194515
19	1148	0.94	2.2483284590418
19	1149	0.95	2.2483241156426
19	1184	0.96	2.2483183191777
19	1185	0.97	2.2483110992692
19	1186	0.98	2.2483024852376
19	1187	0.99	2.248292506101
19	1192	1	2.2482811905783
19	1231	1.01	2.2482685670849
19	1266	1.02	2.2482546637371
19	1301	1.03	2.2482395083509
19	1302	1.04	2.2482231284422
19	1303	1.05	2.2482055512271
19	1338	1.06	2.2481868036241
19	1339	1.07	2.2481669122518
19	1340	1.08	2.248145903433
19	1341	1.09	2.2481238031918
19	1342	1.1	2.2481006372576
19	1382	1.11	2.2480764310635
19	1417	1.12	2.248051209748
19	1452	1.13	2.2480249981564
19	1453	1.14	2.2479978208403
19	1454	1.15	2.2479697020603
19	1489	1.16	2.247940665785
19	1490	1.17	2.2479107356939
19	1491	1.18	2.2478799351768
19	1492	1.19	2.2478482873357
19	1493	1.2	2.2478158149865
19	1533	1.21	2.2477825406591
19	1568	1.22	2.2477484865988
19	1603	1.23	2.2477136747685
19	1604	1.24	2.2476781268477
19	1605	1.25	2.2476418642362
19	1640	1.26	2.2476049080546
19	1641	1.27	2.2475672791455
19	1642	1.28	2.2475289980739
19	1643	1.29	2.2474900851302
19	1644	1.3	2.2474505603306
19	1684	1.31	2.2474104434195
19	1931	1.32	2.24736975387
19	1966	1.33	2.2473285108851
19	1967	1.34	2.2472867334009
19	1968	1.35	2.2472444400871
19	2004	1.36	2.2472016493471
19	2005	1.37	2.2471583793227
19	2006	1.38	2.2471146478935
19	2007	1.39	2.2470704726793
19	2008	1.4	2.2470258710406
19	2047	1.41	2.2469808600815
19	2082	1.42	2.2469354566524
19	2117	1.43	2.2468896773485
19	2118	1.44	2.2468435385143
19	2119	1.45	2.2467970562444
19	2154	1.46	2.2467502463857
19	2155	1.47	2.2467031245372
19	2156	1.48	2.2466557060545
19	2157	1.49	2.2466080060504
19	2158	1.5	2.2465600393959
19	2197	1.51	2.2465118207228
19	2232	1.52	2.2464633644263
19	2267	1.53	2.2464146846653
19	2268	1.54	2.2463657953652
19	2269	1.55	2.24631671022
19	2304	1.56	2.2462674426926
19	2305	1.57	2.2462180060183
19	2306	1.58	2.2461684132061
19	2307	1.59	2.2461186770406
19	2308	1.6	2.2460688100841
19	2347	1.61	2.2460188246781
19	2382	1.62	2.2459687329447
19	2417	1.63	2.2459185467904
19	2418	1.64	2.2458682779059
19	2419	1.65	2.2458179377702
19	2454	1.66	2.2457675376493
19	2455	1.67	2.2457170886013
19	2456	1.68	2.2456666014777
19	2457	1.69	2.2456160869238
19	2458	1.7	2.2455655553814
19	2497	1.71	2.2455150170914
19	2532	1.72	2.2454644820949
19	2567	1.73	2.2454139602363
19	2568	1.74	2.245363461164
19	2569	1.75	2.2453129943329
19	2604	1.76	2.2452625690053
19	2605	1.77	2.2452121942553
19	2606	1.78	2.245161878968
19	2607	1.79	2.2451116318427
19	2608	1.8	2.2450614613964
19	2647	1.81	2.2450113759622
19	2682	1.82	2.2449613836934
19	2717	1.83	2.2449114925663
19	2718	1.84	2.2448617103803
19	2719	1.85	2.2448120447601
19	2754	1.86	2.2447625031588
19	2755	1.87	2.2447130928589
19	2756	1.88	2.2446638209746
19	2757	1.89	2.2446146944531
19	2758	1.9	2.2445657200766
19	2797	1.91	2.2445169044649
19	2832	1.92	2.2444682540776
19	2867	1.93	2.2444197752138
19	2868	1.94	2.2443714740169
19	2869	1.95	2.2443233564739
19	2904	1.96	2.2442754284185
19	2905	1.97	2.2442276955337
19	2906	1.98	2.2441801633523
19	2907	1.99	2.2441328372595
19	2912	2	2.2440857224945
19	2951	2.01	2.2440388241517
19	2986	2.02	2.2439921471843
19	3021	2.03	2.2439456964036
19	3022	2.04	2.2438994764833
19	3023	2.05	2.2438534919602
19	3058	2.06	2.243807747236
19	3059	2.07	2.2437622465776
19	3060	2.08	2.2437169941224
19	3061	2.09	2.2436719938773
19	3062	2.1	2.2436272497205
19	3101	2.11	2.2435827654049
19	3136	2.12	2.2435385445587
19	3171	2.13	2.243494590687
19	3172	2.14	2.2434509071731
19	3173	2.15	2.2434074972828
19	3208	2.16	2.2433643641629
19	3209	2.17	2.2433215108443
19	3210	2.18	2.2432789402438
19	3211	2.19	2.2432366551655
19	3212	2.2	2.2431946583034
19	3251	2.21	2.243152952241
19	3286	2.22	2.243111539454
19	3321	2.23	2.2430704223131
19	3322	2.24	2.243029603084
19	3323	2.25	2.2429890839298
19	3358	2.26	2.2429488669121
19	3359	2.27	2.2429089539925
19	3360	2.28	2.2428693470355
19	3361	2.29	2.2428300478081
19	3362	2.3	2.2427910579826
19	3401	2.31	2.2427523791376
19	3436	2.32	2.2427140127606
19	3471	2.33	2.2426759602474
19	3472	2.34	2.2426382229066
19	3473	2.35	2.2426008019576
19	3509	2.36	2.2425636985349
19	3722	2.37	2.2425269136884
19	3723	2.38	2.2424904483841
19	3724	2.39	2.2424543035078
19	3725	2.4	2.2424184798632
19	3765	2.41	2.2423829781773
19	3800	2.42	2.2423477990989
19	3835	2.43	2.2423129432006
19	3836	2.44	2.2422784109803
19	3837	2.45	2.242244202863
19	3872	2.46	2.2422103192011
19	3873	2.47	2.242176760278
19	3874	2.48	2.2421435263064
19	3875	2.49	2.2421106174316
19	3876	2.5	2.2420780337321
19	3915	2.51	2.2420457752221
19	3950	2.52	2.2420138418506
19	3985	2.53	2.2419822335042
19	3986	2.54	2.2419509500078
19	3987	2.55	2.2419199911263
19	4022	2.56	2.2418893565658
19	4023	2.57	2.2418590459736
19	4024	2.58	2.2418290589415
19	4025	2.59	2.2417993950055
19	4026	2.6	2.241770053647
19	4065	2.61	2.2417410342951
19	4100	2.62	2.2417123363259
19	4135	2.63	2.2416839590649
19	4136	2.64	2.2416559017885
19	4137	2.65	2.241628163725
19	4172	2.66	2.2416007440538
19	4173	2.67	2.2415736419083
19	4174	2.68	2.241546856378
19	4175	2.69	2.2415203865066
19	4176	2.7	2.241494231295
19	4215	2.71	2.2414683897028
19	4250	2.72	2.2414428606472
19	4285	2.73	2.2414176430065
19	4286	2.74	2.2413927356194
19	4287	2.75	2.2413681372865
19	4322	2.76	2.2413438467718
19	4323	2.77	2.241319862802
19	4324	2.78	2.2412961840701
19	4325	2.79	2.2412728092338
19	4326	2.8	2.2412497369179
19	4365	2.81	2.2412269657153
19	4400	2.82	2.241204494187
19	4435	2.83	2.2411823208632
19	4436	2.84	2.2411604442449
19	4437	2.85	2.2411388628037
19	4472	2.86	2.241117574984
19	4473	2.87	2.2410965792033
19	4474	2.88	2.2410758738516
19	4475	2.89	2.2410554572944
19	4476	2.9	2.2410353278731
19	4515	2.91	2.2410154839042
19	4550	2.92	2.2409959236823
19	4585	2.93	2.2409766454787
19	4586	2.94	2.2409576475437
19	4587	2.95	2.240938928108
19	4622	2.96	2.2409204853807
19	4623	2.97	2.2409023175527
19	4624	2.98	2.2408844227967
19	4625	2.99	2.2408667992672
19	4630	3	2.2408494451016
19	4669	3.01	2.2408323584207
19	4704	3.02	2.2408155373311
19	4739	3.03	2.2407989799229
19	4740	3.04	2.240782684273
19	4741	3.05	2.240766648444
19	4776	3.06	2.2407508704857
19	4777	3.07	2.2407353484357
19	4778	3.08	2.2407200803195
19	4779	3.09	2.2407050641523
19	4780	3.1	2.2406902979386
19	4819	3.11	2.2406757796728
19	4854	3.12	2.2406615073399
19	4889	3.13	2.2406474789158
19	4890	3.14	2.2406336923693
19	4891	3.15	2.2406201456604
19	4926	3.16	2.2406068367433
19	4927	3.17	2.2405937635653
19	4928	3.18	2.2405809240672
19	4929	3.19	2.2405683161845
19	4930	3.2	2.2405559378482
19	4969	3.21	2.2405437869842
19	5004	3.22	2.2405318615153
19	5039	3.23	2.24052015936
19	5040	3.24	2.2405086784344
19	5041	3.25	2.2404974166517
19	5076	3.26	2.2404863719238
19	5077	3.27	2.2404755421597
19	5078	3.28	2.2404649252689
19	5079	3.29	2.2404545191583
19	5080	3.3	2.2404443217359
19	5119	3.31	2.2404343309088
19	5154	3.32	2.2404245445856
19	5189	3.33	2.2404149606755
19	5190	3.34	2.2404055770885
19	5191	3.35	2.2403963917372
19	5226	3.36	2.2403874025349
19	5227	3.37	2.2403786073984
19	5228	3.38	2.2403700042472
19	5229	3.39	2.240361591004
19	5230	3.4	2.2403533655946
19	5270	3.41	2.2403453259493
19	5561	3.42	2.2403374700012
19	5596	3.43	2.2403297956895
19	5597	3.44	2.2403223009568
19	5598	3.45	2.240314983752
19	5634	3.46	2.2403078420291
19	5635	3.47	2.2403008737472
19	5636	3.48	2.2402940768722
19	5637	3.49	2.2402874493758
19	5638	3.5	2.2402809892363
19	5677	3.51	2.2402746944391
19	5712	3.52	2.240268562976
19	5747	3.53	2.2402625928474
19	5748	3.54	2.2402567820602
19	5749	3.55	2.2402511286292
19	5784	3.56	2.2402456305775
19	5785	3.57	2.2402402859364
19	5786	3.58	2.2402350927459
19	5787	3.59	2.2402300490552
19	5788	3.6	2.2402251529213
19	5827	3.61	2.2402204024111
19	5862	3.62	2.2402157956009
19	5897	3.63	2.2402113305758
19	5898	3.64	2.2402070054314
19	5899	3.65	2.2402028182734
19	5934	3.66	2.2401987672169
19	5935	3.67	2.2401948503875
19	5936	3.68	2.2401910659217
19	5937	3.69	2.2401874119656
19	5938	3.7	2.2401838866774
19	5977	3.71	2.2401804882243
19	6012	3.72	2.2401772147868
19	6047	3.73	2.2401740645551
19	6048	3.74	2.2401710357309
19	6049	3.75	2.2401681265279
19	6084	3.76	2.2401653351701
19	6085	3.77	2.2401626598953
19	6086	3.78	2.2401600989509
19	6087	3.79	2.2401576505979
19	6088	3.8	2.240155313109
19	6127	3.81	2.2401530847679
19	6162	3.82	2.240150963872
19	6197	3.83	2.2401489487297
19	6198	3.84	2.2401470376631
19	6199	3.85	2.2401452290059
19	6234	3.86	2.2401435211049
19	6235	3.87	2.2401419123193
19	6236	3.88	2.2401404010213
19	6237	3.89	2.2401389855955
19	6238	3.9	2.2401376644396
19	6277	3.91	2.2401364359641
19	6312	3.92	2.2401352985923
19	6347	3.93	2.2401342507615
19	6348	3.94	2.2401332909211
19	6349	3.95	2.2401324175339
19	6384	3.96	2.2401316290761
19	6385	3.97	2.2401309240373
19	6386	3.98	2.24013030092
19	6387	3.99	2.2401297582392
19	6392	4	2.2401292945249
19	6431	4.01	2.2401289083198
19	6466	4.02	2.2401285981793
19	6501	4.03	2.2401283626731
19	6502	4.04	2.240128200384
19	6503	4.05	2.2401281099081
19	6538	4.06	2.2401280898544
19	6539	4.07	2.2401281388465
19	6540	4.08	2.2401282555212
19	6541	4.09	2.2401284385282
19	6542	4.1	2.2401286865313
19	6581	4.11	2.2401289982072
19	6616	4.12	2.2401293722459
19	6651	4.13	2.2401298073519
19	6652	4.14	2.2401303022421
19	6653	4.15	2.2401308556472
19	6688	4.16	2.2401314663112
19	6689	4.17	2.240132132992
19	6690	4.18	2.2401328544603
19	6691	4.19	2.2401336295005
19	6692	4.2	2.2401344569097
19	6731	4.21	2.2401353354993
19	6766	4.22	2.2401362640935
19	6801	4.23	2.2401372415299
19	6802	4.24	2.2401382666585
19	6803	4.25	2.2401393383435
19	6838	4.26	2.2401404554618
19	6839	4.27	2.240141616904
19	6840	4.28	2.2401428215729
19	6841	4.29	2.240144068384
19	6842	4.3	2.2401453562672
19	6881	4.31	2.2401466841646
19	6916	4.32	2.2401480510313
19	6951	4.33	2.2401494558349
19	6952	4.34	2.2401508975564
19	6953	4.35	2.2401523751892
19	6988	4.36	2.2401538877395
19	6989	4.37	2.2401554342259
19	6990	4.38	2.2401570136797
19	6991	4.39	2.2401586251445
19	6992	4.4	2.2401602676768
19	7031	4.41	2.2401619403456
19	7066	4.42	2.2401636422318
19	7101	4.43	2.2401653724288
19	7102	4.44	2.2401671300427
19	7103	4.45	2.2401689141909
19	7139	4.46	2.2401707240033
19	7352	4.47	2.2401725586218
19	7353	4.48	2.2401744172002
19	7354	4.49	2.2401762989043
19	7355	4.5	2.2401782029117
19	7395	4.51	2.2401801284115
19	7430	4.52	2.2401820746052
19	7465	4.53	2.2401840407051
19	7466	4.54	2.2401860259352
19	7467	4.55	2.2401880295318
19	7502	4.56	2.240190050741
19	7503	4.57	2.240192088822
19	7504	4.58	2.2401941430435
19	7505	4.59	2.2401962126869
19	7506	4.6	2.2401982970441
19	7545	4.61	2.2402003954177
19	7580	4.62	2.2402025071208
19	7615	4.63	2.2402046314786
19	7616	4.64	2.2402067678264
19	7617	4.65	2.2402089155104
19	7652	4.66	2.2402110738866
19	7653	4.67	2.2402132423227
19	7654	4.68	2.2402154201957
19	7655	4.69	2.240217606894
19	7656	4.7	2.2402198018161
19	7695	4.71	2.2402220043695
19	7730	4.72	2.2402242139734
19	7765	4.73	2.240226430056
19	7766	4.74	2.2402286520557
19	7767	4.75	2.2402308794208
19	7802	4.76	2.240233111609
19	7803	4.77	2.2402353480887
19	7804	4.78	2.2402375883367
19	7805	4.79	2.24023983184
19	7806	4.8	2.2402420780951
19	7845	4.81	2.2402443266076
19	7880	4.82	2.2402465768924
19	7915	4.83	2.2402488284733
19	7916	4.84	2.2402510808832
19	7917	4.85	2.2402533336645
19	7952	4.86	2.2402555863683
19	7953	4.87	2.2402578385543
19	7954	4.88	2.2402600897908
19	7955	4.89	2.2402623396556
19	7956	4.9	2.2402645877338
19	7995	4.91	2.2402668336199
19	8030	4.92	2.2402690769162
19	8065	4.93	2.2402713172339
19	8066	4.94	2.2402735541923
19	8067	4.95	2.2402757874184
19	8102	4.96	2.2402780165475
19	8103	4.97	2.2402802412228
19	8104	4.98	2.2402824610956
19	8105	4.99	2.2402846758251
19	8110	5	2.2402868850774
19	8149	5.01	2.2402890885271
19	8184	5.02	2.2402912858555
19	8219	5.03	2.240293476752
19	8220	5.04	2.2402956609128
19	8221	5.05	2.2402978380419
19	8256	5.06	2.2403000078502
19	8257	5.07	2.2403021700558
19	8258	5.08	2.2403043243843
19	8259	5.09	2.2403064705673
19	8260	5.1	2.2403086083436
19	8299	5.11	2.2403107374591
19	8334	5.12	2.2403128576666
19	8369	5.13	2.2403149687246
19	8370	5.14	2.2403170703982
19	8371	5.15	2.2403191624598
19	8406	5.16	2.2403212446873
19	8407	5.17	2.2403233168651
19	8408	5.18	2.2403253787847
19	8409	5.19	2.2403274302425
19	8410	5.2	2.2403294710412
19	8449	5.21	2.2403315009903
19	8484	5.22	2.2403335199038
19	8519	5.23	2.2403355276024
19	8520	5.24	2.2403375239123
19	8521	5.25	2.2403395086658
19	8556	5.26	2.2403414816998
19	8557	5.27	2.2403434428578
19	8558	5.28	2.2403453919876
19	8559	5.29	2.2403473289428
19	8560	5.3	2.2403492535826
19	8599	5.31	2.2403511657715
19	8634	5.32	2.2403530653778
19	8669	5.33	2.2403549522763
19	8670	5.34	2.2403568263462
19	8671	5.35	2.2403586874714
19	8706	5.36	2.2403605355408
19	8707	5.37	2.2403623704483
19	8708	5.38	2.240364192092
19	8709	5.39	2.2403660003749
19	8710	5.4	2.2403677952046
19	8749	5.41	2.2403695764925
19	8784	5.42	2.240371344155
19	8819	5.43	2.2403730981125
19	8820	5.44	2.2403748382901
19	8821	5.45	2.2403765646162
19	8856	5.46	2.2403782770247
19	8857	5.47	2.2403799754522
19	8858	5.48	2.2403816598405
19	8859	5.49	2.2403833301338
19	8860	5.5	2.2403849862813
19	8900	5.51	2.2403866282358
19	9147	5.52	2.2403882559535
19	9182	5.53	2.2403898693946
19	9183	5.54	2.240391468522
19	9184	5.55	2.2403930533032
19	9220	5.56	2.2403946237087
19	9221	5.57	2.2403961797128
19	9222	5.58	2.2403977212926
19	9223	5.59	2.2403992484286
19	9224	5.6	2.2404007611047
19	9263	5.61	2.2404022593075
19	9298	5.62	2.2404037430276
19	9333	5.63	2.2404052122577
19	9334	5.64	2.2404066669931
19	9335	5.65	2.2404081072341
19	9370	5.66	2.2404095329814
19	9371	5.67	2.2404109442406
19	9372	5.68	2.2404123410186
19	9373	5.69	2.2404137233251
19	9374	5.7	2.2404150911731
19	9413	5.71	2.2404164445783
19	9448	5.72	2.2404177835578
19	9483	5.73	2.2404191081322
19	9484	5.74	2.2404204183247
19	9485	5.75	2.2404217141599
19	9520	5.76	2.2404229956651
19	9521	5.77	2.2404242628703
19	9522	5.78	2.2404255158076
19	9523	5.79	2.2404267545112
19	9524	5.8	2.2404279790165
19	9563	5.81	2.2404291893625
19	9598	5.82	2.2404303855893
19	9633	5.83	2.2404315677394
19	9634	5.84	2.2404327358564
19	9635	5.85	2.2404338899866
19	9670	5.86	2.2404350301787
19	9671	5.87	2.2404361564817
19	9672	5.88	2.2404372689475
19	9673	5.89	2.2404383676287
19	9674	5.9	2.2404394525806
19	9713	5.91	2.24044052386
19	9748	5.92	2.240441581524
19	9783	5.93	2.240442625633
19	9784	5.94	2.2404436562477
19	9785	5.95	2.2404446734309
19	9820	5.96	2.2404456772463
19	9821	5.97	2.2404466677594
19	9822	5.98	2.2404476450365
19	9823	5.99	2.2404486091454
19	9828	6	2.2404495601558
19	9867	6.01	2.2404504981375
19	9902	6.02	2.2404514231623
19	9937	6.03	2.2404523353028
19	9938	6.04	2.2404532346328
19	9939	6.05	2.2404541212277
19	9974	6.06	2.2404549951627
19	9975	6.07	2.2404558565146
19	9976	6.08	2.2404567053614
19	9977	6.09	2.240457541782
19	9978	6.1	2.2404583658557
19	10017	6.11	2.2404591776636
19	10052	6.12	2.2404599772871
19	10087	6.13	2.2404607648078
19	10088	6.14	2.2404615403088
19	10089	6.15	2.2404623038736
19	10124	6.16	2.2404630555861
19	10125	6.17	2.240463795532
19	10126	6.18	2.2404645237971
19	10127	6.19	2.2404652404672
19	10128	6.2	2.2404659456289
19	10167	6.21	2.24046663937
19	10202	6.22	2.2404673217785
19	10237	6.23	2.2404679929425
19	10238	6.24	2.2404686529505
19	10239	6.25	2.2404693018927
19	10274	6.26	2.2404699398584
19	10275	6.27	2.2404705669378
19	10276	6.28	2.240471183221
19	10277	6.29	2.2404717887995
19	10278	6.3	2.2404723837644
19	10317	6.31	2.2404729682063
19	10352	6.32	2.2404735422178
19	10387	6.33	2.2404741058904
19	10388	6.34	2.2404746593171
19	10389	6.35	2.2404752025897
19	10424	6.36	2.2404757358006
19	10425	6.37	2.2404762590429
19	10426	6.38	2.2404767724091
19	10427	6.39	2.2404772759923
19	10428	6.4	2.2404777698859
19	10467	6.41	2.2404782541823
19	10502	6.42	2.2404787289755
19	10537	6.43	2.2404791943582
19	10538	6.44	2.2404796504243
19	10539	6.45	2.2404800972666
19	10574	6.46	2.2404805349784
19	10575	6.47	2.2404809636531
19	10576	6.48	2.2404813833836
19	10577	6.49	2.2404817942632
19	10578	6.5	2.2404821963843
19	10617	6.51	2.2404825898402
19	10652	6.52	2.2404829747239
19	10687	6.53	2.2404833511277
19	10688	6.54	2.2404837191445
19	10689	6.55	2.2404840788659
19	10725	6.56	2.2404844303842
19	10982	6.57	2.2404847737919
19	10983	6.58	2.2404851091805
[...]
2	65694	55.23	931.55726268403
2	65695	55.24	931.69615168374
2	65696	55.25	931.83504068346
2	65715	55.26	931.97392968317
2	65716	55.27	932.11281868289
2	65717	55.28	932.2517076826
2	65718	55.29	932.39059668231
2	65719	55.3	932.52948568203
2	65722	55.31	932.66837468175
2	65723	55.32	932.80726368146
2	65742	55.33	932.94615268118
2	65743	55.34	933.0850416809
2	65744	55.35	933.22393068061
2	65763	55.36	933.36281968033
2	65764	55.37	933.50170868005
2	65765	55.38	933.64059767977
2	65766	55.39	933.77948667949
2	65767	55.4	933.91837567921
2	65770	55.41	934.05726467893
2	65771	55.42	934.19615367865
2	65790	55.43	934.33504267837
2	65791	55.44	934.47393167809
2	65792	55.45	934.61282067782
2	65811	55.46	934.75170967754
2	65812	55.47	934.89059867726
2	65813	55.48	935.02948767698
2	65814	55.49	935.16837667671
2	65815	55.5	935.30726567643
2	65818	55.51	935.44615467616
2	65819	55.52	935.58504367588
2	65838	55.53	935.72393267561
2	65839	55.54	935.86282167533
2	65840	55.55	936.00171067506
2	65859	55.56	936.14059967479
2	65860	55.57	936.27948867451
2	65861	55.58	936.41837767424
2	65862	55.59	936.55726667397
2	65863	55.6	936.6961556737
2	65866	55.61	936.83504467343
2	65867	55.62	936.97393367316
2	65886	55.63	937.11282267289
2	65887	55.64	937.25171167262
2	65888	55.65	937.39060067235
2	65907	55.66	937.52948967208
2	65908	55.67	937.66837867181
2	65909	55.68	937.80726767154
2	65910	55.69	937.94615667127
2	65911	55.7	938.08504567101
2	65914	55.71	938.22393467074
2	65915	55.72	938.36282367047
2	65934	55.73	938.50171267021
2	65935	55.74	938.64060166994
2	65936	55.75	938.77949066968
2	65955	55.76	938.91837966941
2	65956	55.77	939.05726866915
2	65957	55.78	939.19615766888
2	65958	55.79	939.33504666862
2	65959	55.8	939.47393566836
2	65962	55.81	939.61282466809
2	65963	55.82	939.75171366783
2	65982	55.83	939.89060266757
2	65983	55.84	940.02949166731
2	65984	55.85	940.16838066705
2	66003	55.86	940.30726966679
2	66004	55.87	940.44615866653
2	66005	55.88	940.58504766627
2	66006	55.89	940.72393666601
2	66007	55.9	940.86282566575
2	66010	55.91	941.00171466549
2	66011	55.92	941.14060366523
2	66030	55.93	941.27949266497
2	66031	55.94	941.41838166472
2	66032	55.95	941.55727066446
2	66051	55.96	941.6961596642
2	66052	55.97	941.83504866395
2	66053	55.98	941.97393766369
2	66054	55.99	942.11282666343
2	66057	56	942.25171566318
2	66060	56.01	942.39060466292
2	66061	56.02	942.52949366267
2	66080	56.03	942.66838266242
2	66081	56.04	942.80727166216
2	66082	56.05	942.94616066191
2	66101	56.06	943.08504966166
2	66102	56.07	943.2239386614
2	66103	56.08	943.36282766115
2	66104	56.09	943.5017166609
2	66105	56.1	943.64060566065
2	66108	56.11	943.7794946604
2	66109	56.12	943.91838366015
2	66128	56.13	944.0572726599
2	66129	56.14	944.19616165965
2	66130	56.15	944.3350506594
2	66149	56.16	944.47393965915
2	66150	56.17	944.6128286589
2	66151	56.18	944.75171765866
2	66152	56.19	944.89060665841
2	66153	56.2	945.02949565816
2	66156	56.21	945.16838465791
2	66157	56.22	945.30727365767
2	66176	56.23	945.44616265742
2	66177	56.24	945.58505165718
2	66178	56.25	945.72394065693
2	66197	56.26	945.86282965669
2	66198	56.27	946.00171865644
2	66199	56.28	946.1406076562
2	66200	56.29	946.27949665595
2	66201	56.3	946.41838565571
2	66204	56.31	946.55727465547
2	66205	56.32	946.69616365522
2	66224	56.33	946.83505265498
2	66225	56.34	946.97394165474
2	66226	56.35	947.1128306545
2	66245	56.36	947.25171965426
2	66246	56.37	947.39060865402
2	66247	56.38	947.52949765378
2	66248	56.39	947.66838665354
2	66249	56.4	947.8072756533
2	66252	56.41	947.94616465306
2	66253	56.42	948.08505365282
2	66272	56.43	948.22394265258
2	66273	56.44	948.36283165234
2	66274	56.45	948.5017206521
2	66293	56.46	948.64060965187
2	66294	56.47	948.77949865163
2	66295	56.48	948.91838765139
2	66296	56.49	949.05727665116
2	66297	56.5	949.19616565092
2	66300	56.51	949.33505465069
2	66301	56.52	949.47394365045
2	66320	56.53	949.61283265022
2	66321	56.54	949.75172164998
2	66322	56.55	949.89061064975
2	66341	56.56	950.02949964951
2	66342	56.57	950.16838864928
2	66343	56.58	950.30727764905
2	66344	56.59	950.44616664881
2	66345	56.6	950.58505564858
2	66348	56.61	950.72394464835
2	66349	56.62	950.86283364812
2	66368	56.63	951.00172264789
2	66369	56.64	951.14061164766
2	66370	56.65	951.27950064743
2	66389	56.66	951.4183896472
2	66390	56.67	951.55727864697
2	66391	56.68	951.69616764674
2	66392	56.69	951.83505664651
2	66393	56.7	951.97394564628
2	66396	56.71	952.11283464605
2	66397	56.72	952.25172364582
2	66416	56.73	952.3906126456
2	66417	56.74	952.52950164537
2	66418	56.75	952.66839064514
2	66437	56.76	952.80727964491
2	66438	56.77	952.94616864469
2	66439	56.78	953.08505764446
2	66440	56.79	953.22394664424
2	66441	56.8	953.36283564401
2	66444	56.81	953.50172464379
2	66445	56.82	953.64061364356
2	66464	56.83	953.77950264334
2	66465	56.84	953.91839164312
2	66466	56.85	954.05728064289
2	66485	56.86	954.19616964267
2	66486	56.87	954.33505864245
2	66487	56.88	954.47394764222
2	66488	56.89	954.612836642
2	66489	56.9	954.75172564178
2	66492	56.91	954.89061464156
2	66493	56.92	955.02950364134
2	66512	56.93	955.16839264112
2	66513	56.94	955.3072816409
2	66514	56.95	955.44617064068
2	66533	56.96	955.58505964046
2	66534	56.97	955.72394864024
2	66535	56.98	955.86283764002
2	66536	56.99	956.0017266398
2	66539	57	956.14061563958
2	66542	57.01	956.27950463937
2	66543	57.02	956.41839363915
2	66562	57.03	956.55728263893
2	66563	57.04	956.69617163871
2	66564	57.05	956.8350606385
2	66583	57.06	956.97394963828
2	66584	57.07	957.11283863806
2	66585	57.08	957.25172763785
2	66586	57.09	957.39061663763
2	66587	57.1	957.52950563742
2	66590	57.11	957.66839463721
2	66591	57.12	957.80728363699
2	66610	57.13	957.94617263678
2	66611	57.14	958.08506163656
2	66612	57.15	958.22395063635
2	66631	57.16	958.36283963614
2	66632	57.17	958.50172863593
2	66633	57.18	958.64061763571
2	66634	57.19	958.7795066355
2	66635	57.2	958.91839563529
2	66638	57.21	959.05728463508
2	66639	57.22	959.19617363487
2	66658	57.23	959.33506263466
2	66659	57.24	959.47395163445
2	66660	57.25	959.61284063424
2	66679	57.26	959.75172963403
2	66680	57.27	959.89061863382
2	66681	57.28	960.02950763361
2	66682	57.29	960.1683966334
2	66683	57.3	960.30728563319
2	66686	57.31	960.44617463299
2	66687	57.32	960.58506363278
2	66706	57.33	960.72395263257
2	66707	57.34	960.86284163236
2	66708	57.35	961.00173063216
2	66727	57.36	961.14061963195
2	66728	57.37	961.27950863174
2	66729	57.38	961.41839763154
2	66730	57.39	961.55728663133
2	66731	57.4	961.69617563113
2	66734	57.41	961.83506463092
2	66735	57.42	961.97395363072
2	66754	57.43	962.11284263052
2	66755	57.44	962.25173163031
2	66756	57.45	962.39062063011
2	66775	57.46	962.52950962991
2	66776	57.47	962.6683986297
2	66777	57.48	962.8072876295
2	66778	57.49	962.9461766293
2	66779	57.5	963.0850656291
2	66782	57.51	963.22395462889
2	66783	57.52	963.36284362869
2	66802	57.53	963.50173262849
2	66803	57.54	963.64062162829
2	66804	57.55	963.77951062809
2	66823	57.56	963.91839962789
2	66824	57.57	964.05728862769
2	66825	57.58	964.19617762749
2	66826	57.59	964.33506662729
2	66827	57.6	964.4739556271
2	66830	57.61	964.6128446269
2	66831	57.62	964.7517336267
2	66850	57.63	964.8906226265
2	66851	57.64	965.0295116263
2	66852	57.65	965.16840062611
2	66871	57.66	965.30728962591
2	66872	57.67	965.44617862571
2	66873	57.68	965.58506762552
2	66874	57.69	965.72395662532
2	66875	57.7	965.86284562513
2	66878	57.71	966.00173462493
2	66879	57.72	966.14062362474
2	66898	57.73	966.27951262454
2	66899	57.74	966.41840162435
2	66900	57.75	966.55729062415
2	66919	57.76	966.69617962396
2	66920	57.77	966.83506862377
2	66921	57.78	966.97395762357
2	66922	57.79	967.11284662338
2	66923	57.8	967.25173562319
2	66926	57.81	967.39062462299
2	66927	57.82	967.5295136228
2	66946	57.83	967.66840262261
2	66947	57.84	967.80729162242
2	66948	57.85	967.94618062223
2	66967	57.86	968.08506962204
2	66968	57.87	968.22395862185
2	66969	57.88	968.36284762166
2	66970	57.89	968.50173662147
2	66971	57.9	968.64062562128
2	66974	57.91	968.77951462109
2	66975	57.92	968.9184036209
2	66994	57.93	969.05729262071
2	66995	57.94	969.19618162052
2	66996	57.95	969.33507062033
2	67015	57.96	969.47395962015
2	67016	57.97	969.61284861996
2	67017	57.98	969.75173761977
2	67018	57.99	969.89062661958
2	67021	58	970.0295156194
2	67024	58.01	970.16840461921
2	67025	58.02	970.30729361903
2	67044	58.03	970.44618261884
2	67045	58.04	970.58507161865
2	67046	58.05	970.72396061847
2	67065	58.06	970.86284961828
2	67066	58.07	971.0017386181
2	67067	58.08	971.14062761791
2	67068	58.09	971.27951661773
2	67069	58.1	971.41840561755
2	67072	58.11	971.55729461736
2	67073	58.12	971.69618361718
2	67092	58.13	971.835072617
2	67093	58.14	971.97396161681
2	67094	58.15	972.11285061663
2	67113	58.16	972.25173961645
2	67114	58.17	972.39062861627
2	67115	58.18	972.52951761609
2	67116	58.19	972.66840661591
2	67117	58.2	972.80729561573
2	67120	58.21	972.94618461554
2	67121	58.22	973.08507361536
2	67140	58.23	973.22396261518
2	67141	58.24	973.362851615
2	67142	58.25	973.50174061482
2	67161	58.26	973.64062961465
2	67162	58.27	973.77951861447
2	67163	58.28	973.91840761429
2	67164	58.29	974.05729661411
2	67165	58.3	974.19618561393
2	67168	58.31	974.33507461375
2	67169	58.32	974.47396361358
2	67188	58.33	974.6128526134
2	67189	58.34	974.75174161322
2	67190	58.35	974.89063061304
2	67209	58.36	975.02951961287
2	67210	58.37	975.16840861269
2	67211	58.38	975.30729761252
2	67212	58.39	975.44618661234
2	67213	58.4	975.58507561217
2	67216	58.41	975.72396461199
2	67217	58.42	975.86285361182
2	67236	58.43	976.00174261164
2	67237	58.44	976.14063161147
2	67238	58.45	976.27952061129
2	67257	58.46	976.41840961112
2	67258	58.47	976.55729861095
2	67259	58.48	976.69618761077
2	67260	58.49	976.8350766106
2	67261	58.5	976.97396561043
2	67264	58.51	977.11285461025
2	67265	58.52	977.25174361008
2	67284	58.53	977.39063260991
2	67285	58.54	977.52952160974
2	67286	58.55	977.66841060957
2	67305	58.56	977.8072996094
2	67306	58.57	977.94618860923
2	67307	58.58	978.08507760906
2	67308	58.59	978.22396660889
2	67309	58.6	978.36285560872
2	67312	58.61	978.50174460855
2	67313	58.62	978.64063360838
2	67332	58.63	978.77952260821
2	67333	58.64	978.91841160804
2	67334	58.65	979.05730060787
2	67353	58.66	979.1961896077
2	67354	58.67	979.33507860753
2	67355	58.68	979.47396760736
2	67356	58.69	979.6128566072
2	67357	58.7	979.75174560703
2	67360	58.71	979.89063460686
2	67361	58.72	980.0295236067
2	67380	58.73	980.16841260653
2	67381	58.74	980.30730160636
2	67382	58.75	980.4461906062
2	67401	58.76	980.58507960603
2	67402	58.77	980.72396860587
2	67403	58.78	980.8628576057
2	67404	58.79	981.00174660554
2	67405	58.8	981.14063560537
2	67408	58.81	981.27952460521
2	67409	58.82	981.41841360504
2	67428	58.83	981.55730260488
2	67429	58.84	981.69619160471
2	67430	58.85	981.83508060455
2	67449	58.86	981.97396960439
2	67450	58.87	982.11285860422
2	67451	58.88	982.25174760406
2	67452	58.89	982.3906366039
2	67453	58.9	982.52952560374
2	67456	58.91	982.66841460358
2	67457	58.92	982.80730360341
2	67476	58.93	982.94619260325
2	67477	58.94	983.08508160309
2	67478	58.95	983.22397060293
2	67497	58.96	983.36285960277
2	67498	58.97	983.50174860261
2	67499	58.98	983.64063760245
2	67500	58.99	983.77952660229
2	67503	59	983.91841560213
2	67506	59.01	984.05730460197
2	67507	59.02	984.19619360181
2	67526	59.03	984.33508260165
2	67527	59.04	984.47397160149
2	67528	59.05	984.61286060133
2	67547	59.06	984.75174960118
2	67548	59.07	984.89063860102
2	67549	59.08	985.02952760086
2	67550	59.09	985.1684166007
2	67551	59.1	985.30730560055
2	67554	59.11	985.44619460039
2	67555	59.12	985.58508360023
2	67574	59.13	985.72397260008
2	67575	59.14	985.86286159992
2	67576	59.15	986.00175059976
2	67595	59.16	986.14063959961
2	67596	59.17	986.27952859945
2	67597	59.18	986.4184175993
2	67598	59.19	986.55730659914
2	67599	59.2	986.69619559899
2	67602	59.21	986.83508459883
2	67603	59.22	986.97397359868
2	67622	59.23	987.11286259852
2	67623	59.24	987.25175159837
2	67624	59.25	987.39064059822
2	67643	59.26	987.52952959806
2	67644	59.27	987.66841859791
2	67645	59.28	987.80730759776
2	67646	59.29	987.94619659761
2	67647	59.3	988.08508559745
2	67650	59.31	988.2239745973
2	67651	59.32	988.36286359715
2	67670	59.33	988.501752597
2	67671	59.34	988.64064159685
2	67672	59.35	988.77953059669
2	67691	59.36	988.91841959654
2	67692	59.37	989.05730859639
2	67693	59.38	989.19619759624
2	67694	59.39	989.33508659609
2	67695	59.4	989.47397559594
2	67698	59.41	989.61286459579
2	67699	59.42	989.75175359564
2	67718	59.43	989.89064259549
2	67719	59.44	990.02953159534
2	67720	59.45	990.1684205952
2	67739	59.46	990.30730959505
2	67740	59.47	990.4461985949
2	67741	59.48	990.58508759475
2	67742	59.49	990.7239765946
2	67743	59.5	990.86286559446
2	67746	59.51	991.00175459431
2	67747	59.52	991.14064359416
2	67766	59.53	991.27953259401
2	67767	59.54	991.41842159387
2	67768	59.55	991.55731059372
2	67787	59.56	991.69619959357
2	67788	59.57	991.83508859343
2	67789	59.58	991.97397759328
2	67790	59.59	992.11286659314
2	67791	59.6	992.25175559299
2	67794	59.61	992.39064459285
2	67795	59.62	992.5295335927
2	67814	59.63	992.66842259256
2	67815	59.64	992.80731159241
2	67816	59.65	992.94620059227
2	67835	59.66	993.08508959212
2	67836	59.67	993.22397859198
2	67837	59.68	993.36286759183
2	67838	59.69	993.50175659169
2	67839	59.7	993.64064559155
2	67842	59.71	993.77953459141
2	67843	59.72	993.91842359126
2	67862	59.73	994.05731259112
2	67863	59.74	994.19620159098
2	67864	59.75	994.33509059084
2	67883	59.76	994.47397959069
2	67884	59.77	994.61286859055
2	67885	59.78	994.75175759041
2	67886	59.79	994.89064659027
2	67887	59.8	995.02953559013
2	67890	59.81	995.16842458999
2	67891	59.82	995.30731358985
2	67910	59.83	995.44620258971
2	67911	59.84	995.58509158957
2	67912	59.85	995.72398058943
2	67931	59.86	995.86286958929
2	67932	59.87	996.00175858915
2	67933	59.88	996.14064758901
2	67934	59.89	996.27953658887
2	67935	59.9	996.41842558873
2	67938	59.91	996.55731458859
2	67939	59.92	996.69620358845
2	67958	59.93	996.83509258832
2	67959	59.94	996.97398158818
2	67960	59.95	997.11287058804
2	67979	59.96	997.2517595879
2	67980	59.97	997.39064858777
2	67981	59.98	997.52953758763
2	67982	59.99	997.66842658749
2	67985	60	997.80731558736
2	67988	60.01	997.94620458722
2	67989	60.02	998.08509358708
2	68008	60.03	998.22398258695
2	68009	60.04	998.36287158681
2	68010	60.05	998.50176058668
2	68029	60.06	998.64064958654
2	68030	60.07	998.77953858641
2	68031	60.08	998.91842758627
2	68032	60.09	999.05731658614
2	68033	60.1	999.196205586
2	68036	60.11	999.33509458587
2	68037	60.12	999.47398358573
2	68056	60.13	999.6128725856
2	68057	60.14	999.75176158547
2	68058	60.15	999.89065058533
2	68077	60.16	1000.0295395852
2	68078	60.17	1000.1684285851
2	68079	60.18	1000.3073175849
2	68080	60.19	1000.4462065848
2	68081	60.2	1000.5850955847
2	68084	60.21	1000.7239845845
2	68085	60.22	1000.8628735844
2	68104	60.23	1001.0017625843
2	68105	60.24	1001.1406515841
2	68106	60.25	1001.279540584
2	68125	60.26	1001.4184295839
2	68126	60.27	1001.5573185837
2	68127	60.28	1001.6962075836
2	68128	60.29	1001.8350965835
2	68129	60.3	1001.9739855834
2	68132	60.31	1002.1128745832
2	68133	60.32	1002.2517635831
2	68152	60.33	1002.390652583
2	68153	60.34	1002.5295415828
2	68154	60.35	1002.6684305827
2	68173	60.36	1002.8073195826
2	68174	60.37	1002.9462085824
2	68175	60.38	1003.0850975823
2	68176	60.39	1003.2239865822
2	68177	60.4	1003.3628755821
2	68180	60.41	1003.5017645819
2	68181	60.42	1003.6406535818
2	68200	60.43	1003.7795425817
2	68201	60.44	1003.9184315816
2	68202	60.45	1004.0573205814
2	68221	60.46	1004.1962095813
2	68222	60.47	1004.3350985812
2	68223	60.48	1004.473987581
2	68224	60.49	1004.6128765809
2	68225	60.5	1004.7517655808
2	68228	60.51	1004.8906545807
2	68229	60.52	1005.0295435805
2	68248	60.53	1005.1684325804
2	68249	60.54	1005.3073215803
2	68250	60.55	1005.4462105802
2	68269	60.56	1005.58509958
2	68270	60.57	1005.7239885799
2	68271	60.58	1005.8628775798
2	68272	60.59	1006.0017665797
2	68273	60.6	1006.1406555795
2	68276	60.61	1006.2795445794
2	68277	60.62	1006.4184335793
2	68296	60.63	1006.5573225792
2	68297	60.64	1006.696211579
2	68298	60.65	1006.8351005789
2	68317	60.66	1006.9739895788
2	68318	60.67	1007.1128785787
2	68319	60.68	1007.2517675786
2	68320	60.69	1007.3906565784
2	68321	60.7	1007.5295455783
2	68324	60.71	1007.6684345782
2	68325	60.72	1007.8073235781
2	68344	60.73	1007.9462125779
2	68345	60.74	1008.0851015778
2	68346	60.75	1008.2239905777
2	68365	60.76	1008.3628795776
2	68366	60.77	1008.5017685775
2	68367	60.78	1008.6406575773
2	68368	60.79	1008.7795465772
2	68369	60.8	1008.9184355771
2	68372	60.81	1009.057324577
2	68373	60.82	1009.1962135769
2	68392	60.83	1009.3351025767
2	68393	60.84	1009.4739915766
2	68394	60.85	1009.6128805765
2	68413	60.86	1009.7517695764
2	68414	60.87	1009.8906585763
2	68415	60.88	1010.0295475761
2	68416	60.89	1010.168436576
2	68417	60.9	1010.3073255759
2	68420	60.91	1010.4462145758
2	68421	60.92	1010.5851035757
2	68440	60.93	1010.7239925755
2	68441	60.94	1010.8628815754
2	68442	60.95	1011.0017705753
2	68461	60.96	1011.1406595752
2	68462	60.97	1011.2795485751
2	68463	60.98	1011.418437575
2	68464	60.99	1011.5573265748
2	68467	61	1011.6962155747
2	68470	61.01	1011.8351045746
2	68471	61.02	1011.9739935745
2	68490	61.03	1012.1128825744
2	68491	61.04	1012.2517715743
2	68492	61.05	1012.3906605741
2	68511	61.06	1012.529549574
2	68512	61.07	1012.6684385739
2	68513	61.08	1012.8073275738
2	68514	61.09	1012.9462165737
2	68515	61.1	1013.0851055736
2	68518	61.11	1013.2239945734
2	68519	61.12	1013.3628835733
2	68538	61.13	1013.5017725732
2	68539	61.14	1013.6406615731
2	68540	61.15	1013.779550573
2	68559	61.16	1013.9184395729
2	68560	61.17	1014.0573285728
2	68561	61.18	1014.1962175726
2	68562	61.19	1014.3351065725
2	68563	61.2	1014.4739955724
2	68566	61.21	1014.6128845723
2	68567	61.22	1014.7517735722
2	68586	61.23	1014.8906625721
2	68587	61.24	1015.029551572
2	68588	61.25	1015.1684405719
2	68607	61.26	1015.3073295717
2	68608	61.27	1015.4462185716
2	68609	61.28	1015.5851075715
2	68610	61.29	1015.7239965714
2	68611	61.3	1015.8628855713
2	68614	61.31	1016.0017745712
2	68615	61.32	1016.1406660221
2	68626	61.33	1016.2795647778
2	68627	61.34	1016.4184755972
2	68628	61.35	1016.5574031456
2	68629	61.36	1016.6963519969
2	68630	61.37	1016.8353266355
2	68631	61.38	1016.9743314577
2	68632	61.39	1017.1133707735
2	68633	61.4	1017.2524488086
2	68635	61.41	1017.3915697058
2	68636	61.42	1017.5307375265
2	68647	61.43	1017.6699562528
2	68648	61.44	1017.8092297883
2	68649	61.45	1017.9485619604
2	68650	61.46	1018.0879565212
2	68651	61.47	1018.2274171495
2	68652	61.48	1018.3669474518
2	68653	61.49	1018.5065509638
2	68654	61.5	1018.646231152
2	68656	61.51	1018.785991415
2	68657	61.52	1018.9258350845
2	68668	61.53	1019.0657654273
2	68669	61.54	1019.2057856456
2	68670	61.55	1019.3458988793
2	68671	61.56	1019.4861082064
2	68672	61.57	1019.6264166448
2	68673	61.58	1019.766827153
2	68674	61.59	1019.9073426316
2	68675	61.6	1020.0479659244
2	68677	61.61	1020.1886998192
2	68678	61.62	1020.3295470495
2	68689	61.63	1020.4705102949
2	68690	61.64	1020.6115921824
2	68691	61.65	1020.7527952879
2	68692	61.66	1020.8941221364
2	68693	61.67	1021.0355752036
2	68694	61.68	1021.1771569165
2	68695	61.69	1021.3188696547
2	68696	61.7	1021.4607157509
2	68698	61.71	1021.6026974923
2	68699	61.72	1021.7448171211
2	68710	61.73	1021.8870768356
2	68711	61.74	1022.029478791
2	68712	61.75	1022.1720251002
2	68713	61.76	1022.3147178347
2	68714	61.77	1022.4575590254
2	68715	61.78	1022.6005506634
2	68716	61.79	1022.7436947006
2	68717	61.8	1022.8869930508
2	68719	61.81	1023.0304475902
2	68720	61.82	1023.1740601582
2	68731	61.83	1023.3178325583
2	68732	61.84	1023.4617665583
2	68733	61.85	1023.6058638917
2	68734	61.86	1023.7501262577
2	68735	61.87	1023.8945553225
2	68736	61.88	1024.0391527193
2	68737	61.89	1024.1839200495
2	68738	61.9	1024.328858883
2	68740	61.91	1024.473970759
2	68741	61.92	1024.6192571865
2	68752	61.93	1024.7647196448

