version 3
run OvertakeNoGui-316-20241104-10:07:01-92892
attr configname OvertakeNoGui
attr datetime 20241104-10:07:01
attr datetimef 20241104-100701
attr experiment OvertakeNoGui
attr inifile omnetpp.ini
attr iterationvars "$leaderHeadway=1.2, $leaderSpeed=50, $controller=0, $pCSpeed=60, $pDeltaC=472"
attr iterationvarsd leaderHeadway=1.2/leaderSpeed=50/controller=0/pCSpeed=60/pDeltaC=472
attr iterationvarsf leaderHeadway=1.2,leaderSpeed=50,controller=0,pCSpeed=60,pDeltaC=472-
attr measurement "$leaderHeadway=1.2, $leaderSpeed=50, $controller=0, $pCSpeed=60, $pDeltaC=472"
attr network Overtake
attr processid 92892
attr repetition 0
attr replication #0
attr resultdir results
attr runnumber 316
attr seedset 0
itervar controller 0
itervar leaderHeadway 1.2
itervar leaderSpeed 50
itervar pCSpeed 60
itervar pDeltaC 472
config image-path ../../../../veins/images;../../images
config *.manager.command "\"sumo\""
config *.manager.ignoreGuiCommands true
config *.node[*].scenario_type "\"OvertakeScenario\""
config output-vector-file results/OvertakeNoGui_60_472_0.vec
config output-scalar-file results/OvertakeNoGui_60_472_0.sca
config cmdenv-express-mode false
config cmdenv-autoflush true
config cmdenv-status-frequency 10s
config num-rngs 6
config cmdenv-output-file log.txt
config cmdenv-redirect-output true
config network Overtake
config debug-on-errors true
config print-undisposed true
config *.playgroundSizeX 65000m
config *.playgroundSizeY 25000m
config *.playgroundSizeZ 50m
config sim-time-limit "360 s"
config *.annotations.draw false
config *.obstacles.debug false
config *.world.useTorus false
config *.world.use2D false
config *.manager.updateInterval 0.01s
config *.manager.host "\"localhost\""
config *.manager.moduleType "\"vtypeauto=org.car2x.plexe.PlatoonCar vtypehuman=0\""
config *.manager.moduleName "\"vtypeauto=node vtypehuman=0\""
config *.manager.moduleDisplayString "\"\""
config *.manager.autoShutdown true
config *.manager.margin 25
config *.manager.order -1
config *.connectionManager.sendDirect true
config *.connectionManager.maxInterfDist 2600m
config *.connectionManager.drawMaxIntfDist false
config *.**.nic.mac1609_4.useServiceChannel false
config *.**.nic.mac1609_4.txPower 100mW
config *.**.nic.mac1609_4.bitrate 6Mbps
config *.**.nic.mac1609_4.useAcks true
config *.**.nic.mac1609_4.ackErrorRate 0.0
config *.**.nic.mac1609_4.frameErrorRate 0.0
config *.**.nic.phy80211p.minPowerLevel -94dBm
config *.**.nic.phy80211p.maxTXPower 100mW
config *.**.nic.phy80211p.useNoiseFloor true
config *.**.nic.phy80211p.noiseFloor -95dBm
config *.**.nic.phy80211p.decider "xmldoc(\"config.xml\")"
config *.**.nic.phy80211p.analogueModels "xmldoc(\"config.xml\")"
config *.**.nic.phy80211p.usePropagationDelay true
config *.node[*].mobility.x 0
config *.node[*].mobility.y 0
config *.node[*].mobility.z 1.895
config *.shockwave[*].mobility.x 0
config *.shockwave[*].mobility.y 0
config *.shockwave[*].mobility.z 1.895
config seed-set 0
config **.seed 0
config *.node[*].prot.rng-0 2
config *.node[*].appl.rng-0 3
config *.node[*].scenario.rng-0 4
config *.manager.configFile "\"./sumocfg/overtake.sumo.cfg\""
config *.manager.launchConfig "xmldoc(\"./sumocfg/overtake.launchd.xml\")"
config *.node[*].helper_type "\"PositionHelper\""
config *.node[*].scenario.caccC1 0.5
config *.node[*].scenario.caccXi 1
config *.node[*].scenario.caccOmegaN "0.2 Hz"
config *.node[*].scenario.caccSpacing "5 m"
config *.node[*].scenario.engineTau "0.5 s"
config *.node[*].scenario.ploegH "0.5 s"
config *.node[*].scenario.ploegKp 0.2
config *.node[*].scenario.ploegKd 0.7
config *.node[*].scenario.useRealisticEngine false
config *.node[*].scenario.targetController "\"CACC\""
config *.node[*].scenario.accHeadway "0.1 s"
config *.node[*].scenario.leaderHeadway "1.2 s"
config *.node[*].scenario.leaderSpeed "50 kmph"
config *.node[*].appl_type "\"OvertakeApp\""
config *.node[*].appl.*.scalar-recording true
config *.node[*].appl.*.vector-recording true
config *.node[*].appl.overtakeManeuver "\"OvertakeManeuver\""
config *.node[*].protocol_type "\"SimplePlatooningBeaconing\""
config *.node[*].prot.*.scalar-recording true
config *.node[*].prot.*.vector-recording true
config *.node[*].prot.beaconingInterval "0.1 s"
config *.node[*].prot.priority 4
config *.node[*].prot.packetSize 200
config *.node[*].prot.useControllerAcceleration true
config **.traffic_type "\"OvertakeTrafficManager\""
config **.traffic.platoonInsertTime "0.1 s"
config **.traffic.platooningVType "\"vtypeauto\""
config **.numericController 0
config **.traffic.platoonInsertDistance 5m
config **.traffic.platoonInsertHeadway 0s
config **.traffic.platoonLeaderHeadway 1.2s
config **.traffic.platoonASpeed 50kmph
config **.traffic.platoonBSpeed 100kmph
config **.traffic.platoonCSpeed 60kmph
config **.traffic.platoonSizeA 2
config **.traffic.platoonSizeB 1
config **.traffic.platoonSizeC 1
config **.traffic.initialPositionDeltaA 150
config **.traffic.initialPositionDeltaB 50
config **.traffic.initialPositionDeltaC 472
config **.traffic.controller "\"CACC\""
config **.scalar-recording true
config **.vector-recording true

vector 0 Overtake.node[0].mobility posx ETV
vector 1 Overtake.node[0].mobility posy ETV
vector 2 Overtake.node[1].mobility posx ETV
vector 3 Overtake.node[1].mobility posy ETV
vector 4 Overtake.node[2].mobility posx ETV
vector 5 Overtake.node[2].mobility posy ETV
vector 6 Overtake.node[3].mobility posx ETV
vector 7 Overtake.node[3].mobility posy ETV
vector 8 Overtake.node[0].mobility speed ETV
vector 9 Overtake.node[1].mobility speed ETV
vector 10 Overtake.node[2].mobility speed ETV
vector 11 Overtake.node[3].mobility speed ETV
vector 12 Overtake.node[0].mobility acceleration ETV
vector 13 Overtake.node[0].mobility co2emission ETV
vector 14 Overtake.node[1].mobility acceleration ETV
vector 15 Overtake.node[1].mobility co2emission ETV
vector 16 Overtake.node[2].mobility acceleration ETV
vector 17 Overtake.node[2].mobility co2emission ETV
vector 18 Overtake.node[3].mobility acceleration ETV
vector 19 Overtake.node[3].mobility co2emission ETV
vector 20 Overtake.node[0].appl distance ETV
vector 21 Overtake.node[0].appl relativeSpeed ETV
vector 22 Overtake.node[0].appl nodeId ETV
vector 23 Overtake.node[0].appl acceleration ETV
vector 24 Overtake.node[0].appl controllerAcceleration ETV
vector 25 Overtake.node[0].appl speed ETV
vector 26 Overtake.node[0].appl posx ETV
vector 27 Overtake.node[0].appl posy ETV
vector 28 Overtake.node[1].appl distance ETV
vector 29 Overtake.node[1].appl relativeSpeed ETV
vector 30 Overtake.node[1].appl nodeId ETV
vector 31 Overtake.node[1].appl acceleration ETV
vector 32 Overtake.node[1].appl controllerAcceleration ETV
vector 33 Overtake.node[1].appl speed ETV
vector 34 Overtake.node[1].appl posx ETV
vector 35 Overtake.node[1].appl posy ETV
vector 36 Overtake.node[2].appl distance ETV
vector 37 Overtake.node[2].appl relativeSpeed ETV
vector 38 Overtake.node[2].appl nodeId ETV
vector 39 Overtake.node[2].appl acceleration ETV
vector 40 Overtake.node[2].appl controllerAcceleration ETV
vector 41 Overtake.node[2].appl speed ETV
vector 42 Overtake.node[2].appl posx ETV
vector 43 Overtake.node[2].appl posy ETV
vector 44 Overtake.node[3].appl distance ETV
vector 45 Overtake.node[3].appl relativeSpeed ETV
vector 46 Overtake.node[3].appl nodeId ETV
vector 47 Overtake.node[3].appl acceleration ETV
vector 48 Overtake.node[3].appl controllerAcceleration ETV
vector 49 Overtake.node[3].appl speed ETV
vector 50 Overtake.node[3].appl posx ETV
vector 51 Overtake.node[3].appl posy ETV
vector 52 Overtake.node[1].prot leaderDelay ETV
vector 53 Overtake.node[1].prot leaderDelayId ETV
vector 54 Overtake.node[1].prot frontDelay ETV
vector 55 Overtake.node[1].prot frontDelayId ETV
vector 56 Overtake.node[0].prot nodeId ETV
vector 57 Overtake.node[0].prot busyTime ETV
vector 58 Overtake.node[0].prot collisions ETV
vector 59 Overtake.node[1].prot nodeId ETV
vector 60 Overtake.node[1].prot busyTime ETV
vector 61 Overtake.node[1].prot collisions ETV
vector 62 Overtake.node[2].prot nodeId ETV
vector 63 Overtake.node[2].prot busyTime ETV
vector 64 Overtake.node[2].prot collisions ETV
vector 65 Overtake.node[3].prot nodeId ETV
vector 66 Overtake.node[3].prot busyTime ETV
vector 67 Overtake.node[3].prot collisions ETV
48	26	0.21	-0.00327777
48	176	0.31	-0.00320128
48	326	0.41	-0.00308111
48	476	0.51	-0.00292728
48	626	0.61	-0.00274857
48	776	0.71	-0.00255267
48	926	0.81	-0.00234618
48	1076	0.91	-0.00213471
48	1230	1.01	-0.00192294
48	1381	1.11	-0.00171473
48	1532	1.21	-0.00151316
48	1683	1.31	-0.00132067
48	2099	1.41	-0.227305
48	2249	1.51	-0.227305
48	2399	1.61	-0.227305
48	2549	1.71	-0.227305
48	2699	1.81	-0.227305
48	2849	1.91	-0.227305
48	3003	2.01	-0.227305
48	3153	2.11	-0.227305
48	3303	2.21	-0.227305
48	3453	2.31	-0.227305
48	3603	2.41	-0.227305
48	3753	2.51	-0.227305
48	3903	2.61	-0.227305
48	4053	2.71	-0.227305
48	4203	2.81	-0.227305
48	4353	2.91	-0.227305
48	4507	3.01	-0.227305
48	4657	3.11	-0.227305
48	4807	3.21	-0.227305
48	4957	3.31	-0.227305
48	5107	3.41	-0.227305
48	5257	3.51	-0.227305
48	5407	3.61	-0.227305
48	5557	3.71	-0.227305
48	5707	3.81	-0.227305
48	5857	3.91	-0.227305
48	6011	4.01	-0.227305
48	6161	4.11	-0.227305
48	6311	4.21	-0.227305
48	6461	4.31	-0.227305
48	6611	4.41	-0.227305
48	6761	4.51	-0.227305
48	6911	4.61	-0.227305
48	7061	4.71	-0.227305
48	7211	4.81	-0.227305
48	7361	4.91	-0.227305
48	7515	5.01	-0.227305
48	7665	5.11	-0.227305
48	7815	5.21	-0.227305
48	7965	5.31	-0.227305
48	8115	5.41	-0.227305
48	8265	5.51	-0.227305
48	8415	5.61	-0.227305
48	8565	5.71	-0.227305
48	8715	5.81	-0.227305
48	8865	5.91	-0.227305
48	9019	6.01	-0.227305
48	9169	6.11	-0.227305
48	9319	6.21	-0.227305
48	9469	6.31	-0.227305
48	9619	6.41	-0.227305
48	9769	6.51	-0.227305
48	9919	6.61	-0.227305
48	10069	6.71	-0.227305
48	10219	6.81	-0.227305
48	10369	6.91	-0.227305
48	10523	7.01	-0.227305
48	10673	7.11	-0.227305
48	10823	7.21	-0.227305
48	10973	7.31	-0.227305
48	11123	7.41	-0.227305
48	11273	7.51	-0.227305
48	11423	7.61	-0.227305
48	11573	7.71	-0.227305
48	11723	7.81	-0.227305
48	11873	7.91	-0.227305
48	12027	8.01	-0.227305
48	12177	8.11	-0.227305
48	12327	8.21	-0.227305
48	12477	8.31	-0.227305
48	12627	8.41	-0.227305
48	12777	8.51	-0.227305
48	12927	8.61	-0.227305
48	13077	8.71	-0.227305
48	13227	8.81	-0.227305
48	13377	8.91	-0.227305
48	13531	9.01	-0.227305
48	13681	9.11	-0.227305
48	13831	9.21	-0.227305
48	13981	9.31	-0.227305
48	14131	9.41	-0.227305
48	14281	9.51	-0.227305
48	14431	9.61	-0.227305
48	14581	9.71	-0.227305
48	14731	9.81	-0.227305
48	14881	9.91	-0.227305
48	15035	10.01	-0.227305
48	15185	10.11	-0.227305
48	15335	10.21	-0.227305
48	15485	10.31	-0.227305
48	15635	10.41	-0.227305
48	15785	10.51	-0.227305
48	15935	10.61	-0.227305
48	16085	10.71	-0.227305
48	16235	10.81	-0.227305
48	16385	10.91	-0.227305
48	16539	11.01	-0.227305
48	16689	11.11	-0.227305
48	16839	11.21	-0.227305
48	16989	11.31	-0.227305
48	17140	11.41	-0.227305
48	17290	11.51	-0.227305
48	17440	11.61	-0.227305
48	17590	11.71	-0.227305
48	17740	11.81	-0.227305
48	17891	11.91	1.5
48	18045	12.01	1.5
48	18195	12.11	1.5
48	18345	12.21	1.5
48	18495	12.31	1.5
48	18645	12.41	1.5
48	18795	12.51	1.5
48	18945	12.61	1.5
48	19095	12.71	1.5
48	19245	12.81	1.5
48	19395	12.91	1.43379
48	19549	13.01	1.30412
48	19699	13.11	1.17436
48	19849	13.21	1.04685
48	19999	13.31	0.923464
48	20149	13.41	0.805685
48	20299	13.51	0.694614
48	20449	13.61	0.591039
48	20599	13.71	0.495471
48	20749	13.81	0.408185
48	20899	13.91	0.329258
48	21053	14.01	0.258606
48	21203	14.11	0.196008
48	21353	14.21	0.14114
48	21503	14.31	0.0935983
48	21653	14.41	0.0529185
48	21803	14.51	0.0185977
48	21953	14.61	-0.00989082
48	22103	14.71	-0.033084
48	22253	14.81	-0.051517
48	22403	14.91	-0.0657145
48	22557	15.01	-0.0761828
48	22707	15.11	-0.083404
48	22857	15.21	-0.087832
48	23007	15.31	-0.0898892
48	23157	15.41	-0.0899645
48	23307	15.51	-0.0884127
48	23457	15.61	-0.085554
48	23607	15.71	-0.0816743
48	23757	15.81	-0.0770267
48	23907	15.91	-0.0718326
48	24061	16.01	-0.0662832
48	24211	16.11	-0.0605419
48	24361	16.21	-0.0547461
48	24511	16.31	-0.0490097
48	24661	16.41	-0.0434248
48	24811	16.51	-0.0380644
48	24961	16.61	-0.0329842
48	25111	16.71	-0.0282252
48	25261	16.81	-0.0238148
48	25411	16.91	-0.0197696
48	25565	17.01	-0.0160966
48	25715	17.11	-0.0127948
48	25865	17.21	-0.00985659
48	26015	17.31	-0.00726948
48	26165	17.41	-0.00501677
48	26315	17.51	-0.00307878
48	26465	17.61	-0.00143373
48	26615	17.71	-5.85081e-05
48	26765	17.81	0.00107071
48	26915	17.91	0.00197785
48	27069	18.01	0.00268655
48	27219	18.11	0.00321975
48	27369	18.21	0.0035994
48	27519	18.31	0.0038463
48	27669	18.41	0.00397985
48	27819	18.51	0.00401802
48	27969	18.61	0.00397727
48	28119	18.71	0.00387251
48	28269	18.81	0.00371711
48	28419	18.91	0.00352296
48	28573	19.01	0.0033005
48	28723	19.11	0.00305881
48	28873	19.21	0.00280568
48	29023	19.31	0.0025477
48	29173	19.41	0.00229037
48	29323	19.51	0.00203819
48	29473	19.61	0.00179476
48	29623	19.71	0.00156287
48	29773	19.81	0.00134461
48	29923	19.91	0.00114144
48	30077	20.01	0.000954302
48	30227	20.11	0.000783666
48	30377	20.21	0.000629629
48	30527	20.31	0.000491972
48	30677	20.41	0.000370221
48	30827	20.51	0.000263703
48	30977	20.61	0.000171591
48	31127	20.71	9.29502e-05
48	31277	20.81	2.67698e-05
48	31427	20.91	-2.80013e-05
48	31581	21.01	-7.24305e-05
48	31731	21.11	-0.000107579
48	31881	21.21	-0.000134483
48	32031	21.31	-0.000154142
48	32181	21.41	-0.000167504
48	32331	21.51	-0.000175462
48	32481	21.61	-0.000178843
48	32631	21.71	-0.000178409
48	32781	21.81	-0.000174852
48	32931	21.91	-0.000168799
48	33085	22.01	-0.000160806
48	33235	22.11	-0.000151364
48	33385	22.21	-0.000140904
48	33535	22.31	-0.000129796
48	33685	22.41	-0.000118355
48	33835	22.51	-0.000106847
48	33985	22.61	-9.54897e-05
48	34135	22.71	-8.44603e-05
48	34285	22.81	-7.38975e-05
48	34435	22.91	-6.39069e-05
48	34589	23.01	-5.45648e-05
48	34739	23.11	-4.59225e-05
48	34889	23.21	-3.80091e-05
48	35039	23.31	-3.08356e-05
48	35189	23.41	-2.43978e-05
48	35339	23.51	-1.86789e-05
48	35489	23.61	-1.36525e-05
48	35639	23.71	-9.28413e-06
48	35789	23.81	-5.53407e-06
48	35939	23.91	-2.35845e-06
48	36093	24.01	2.88964e-07
48	36243	24.11	2.45558e-06
48	36393	24.21	4.18892e-06
48	36543	24.31	5.53573e-06
48	36693	24.41	6.54129e-06
48	36843	24.51	7.24888e-06
48	36993	24.61	7.69934e-06
48	37143	24.71	7.93077e-06
48	37293	24.81	7.97839e-06
48	37443	24.91	7.87435e-06
48	37597	25.01	7.64776e-06
48	37747	25.11	7.32472e-06
48	37897	25.21	6.92833e-06
48	38047	25.31	6.47889e-06
48	38197	25.41	5.99399e-06
48	38347	25.51	5.4887e-06
48	38497	25.61	4.97573e-06
48	38647	25.71	4.46568e-06
48	38797	25.81	3.96717e-06
48	38947	25.91	3.48705e-06
48	39101	26.01	3.03065e-06
48	39251	26.11	2.60189e-06
48	39401	26.21	2.20348e-06
48	39551	26.31	1.83713e-06
48	39701	26.41	1.50364e-06
48	39851	26.51	1.2031e-06
48	40001	26.61	9.3497e-07
48	40151	26.71	6.9824e-07
48	40301	26.81	4.91517e-07
48	40451	26.91	3.13115e-07
48	40605	27.01	1.61148e-07
48	40755	27.11	3.35916e-08
48	40905	27.21	-7.16515e-08
48	41055	27.31	-1.56702e-07
48	41205	27.41	-2.23663e-07
48	41355	27.51	-2.74583e-07
48	41505	27.61	-3.1143e-07
48	41655	27.71	-3.36071e-07
48	41805	27.81	-3.50258e-07
48	41955	27.91	-3.55614e-07
48	42109	28.01	-3.5363e-07
48	42259	28.11	-3.45659e-07
48	42409	28.21	-3.32921e-07
48	42559	28.31	-3.165e-07
48	42709	28.41	-2.97352e-07
48	42859	28.51	-2.76311e-07
48	43009	28.61	-2.54094e-07
48	43159	28.71	-2.31311e-07
48	43309	28.81	-2.08472e-07
48	43459	28.91	-1.85998e-07
48	43613	29.01	-1.64224e-07
48	43763	29.11	-1.43417e-07
48	43913	29.21	-1.23776e-07
48	44063	29.31	-1.05443e-07
48	44213	29.41	-8.85127e-08
48	44363	29.51	-7.3036e-08
48	44513	29.61	-5.90301e-08
48	44663	29.71	-4.64816e-08
48	44813	29.81	-3.53538e-08
48	44963	29.91	-2.55909e-08
48	45117	30.01	-1.7123e-08
48	45267	30.11	-9.86944e-09
48	45417	30.21	-3.74172e-09
48	45567	30.31	1.35216e-09
48	45717	30.41	5.50671e-09
48	45867	30.51	8.81606e-09
48	46017	30.61	1.13726e-08
48	46167	30.71	1.32662e-08
48	46317	30.81	1.45814e-08
48	46467	30.91	1.53989e-08
48	46621	31.01	1.57932e-08
48	46771	31.11	1.58337e-08
48	46921	31.21	1.55829e-08
48	47071	31.31	1.50976e-08
48	47221	31.41	1.44286e-08
48	47371	31.51	1.36207e-08
48	47521	31.61	1.27141e-08
48	47671	31.71	1.17421e-08
48	47821	31.81	1.07342e-08
48	47971	31.91	9.7149e-09
48	48125	32.01	8.70415e-09
48	48275	32.11	7.71934e-09
48	48425	32.21	6.77254e-09
48	48575	32.31	5.87441e-09
48	48725	32.41	5.03242e-09
48	48875	32.51	4.25118e-09
48	49025	32.61	3.53424e-09
47	26	0.21	-0.000537287
47	176	0.31	-0.00102256
47	326	0.41	-0.0014023
47	476	0.51	-0.00168868
47	626	0.61	-0.00189332
47	776	0.71	-0.00202724
47	926	0.81	-0.00210073
47	1076	0.91	-0.00212335
47	1230	1.01	-0.00210382
47	1381	1.11	-0.00205006
47	1532	1.21	-0.00196919
47	1683	1.31	-0.00186754
47	2099	1.41	-0.0189722
47	2249	1.51	-0.0563996
47	2399	1.61	-0.087103
47	2549	1.71	-0.112291
47	2699	1.81	-0.132953
47	2849	1.91	-0.149904
47	3003	2.01	-0.163809
47	3153	2.11	-0.175216
47	3303	2.21	-0.184574
47	3453	2.31	-0.192251
47	3603	2.41	-0.198548
47	3753	2.51	-0.203714
47	3903	2.61	-0.207953
47	4053	2.71	-0.211429
47	4203	2.81	-0.214281
47	4353	2.91	-0.216621
47	4507	3.01	-0.21854
47	4657	3.11	-0.220115
47	4807	3.21	-0.221407
47	4957	3.31	-0.222466
47	5107	3.41	-0.223336
47	5257	3.51	-0.224049
47	5407	3.61	-0.224634
47	5557	3.71	-0.225114
47	5707	3.81	-0.225507
47	5857	3.91	-0.22583
47	6011	4.01	-0.226095
47	6161	4.11	-0.226313
47	6311	4.21	-0.226491
47	6461	4.31	-0.226637
47	6611	4.41	-0.226757
47	6761	4.51	-0.226856
47	6911	4.61	-0.226936
47	7061	4.71	-0.227003
47	7211	4.81	-0.227057
47	7361	4.91	-0.227101
47	7515	5.01	-0.227138
47	7665	5.11	-0.227168
47	7815	5.21	-0.227193
47	7965	5.31	-0.227213
47	8115	5.41	-0.227229
47	8265	5.51	-0.227243
47	8415	5.61	-0.227254
47	8565	5.71	-0.227263
47	8715	5.81	-0.227271
47	8865	5.91	-0.227277
47	9019	6.01	-0.227282
47	9169	6.11	-0.227286
47	9319	6.21	-0.227289
47	9469	6.31	-0.227292
47	9619	6.41	-0.227295
47	9769	6.51	-0.227296
47	9919	6.61	-0.227298
47	10069	6.71	-0.227299
47	10219	6.81	-0.2273
47	10369	6.91	-0.227301
47	10523	7.01	-0.227302
47	10673	7.11	-0.227302
47	10823	7.21	-0.227303
47	10973	7.31	-0.227303
47	11123	7.41	-0.227304
47	11273	7.51	-0.227304
47	11423	7.61	-0.227304
47	11573	7.71	-0.227304
47	11723	7.81	-0.227304
47	11873	7.91	-0.227304
47	12027	8.01	-0.227305
47	12177	8.11	-0.227305
47	12327	8.21	-0.227305
47	12477	8.31	-0.227305
47	12627	8.41	-0.227305
47	12777	8.51	-0.227305
47	12927	8.61	-0.227305
47	13077	8.71	-0.227305
47	13227	8.81	-0.227305
47	13377	8.91	-0.227305
47	13531	9.01	-0.227305
47	13681	9.11	-0.227305
47	13831	9.21	-0.227305
47	13981	9.31	-0.227305
47	14131	9.41	-0.227305
47	14281	9.51	-0.227305
47	14431	9.61	-0.227305
47	14581	9.71	-0.227305
47	14731	9.81	-0.227305
47	14881	9.91	-0.227305
47	15035	10.01	-0.227305
47	15185	10.11	-0.227305
47	15335	10.21	-0.227305
47	15485	10.31	-0.227305
47	15635	10.41	-0.227305
47	15785	10.51	-0.227305
47	15935	10.61	-0.227305
47	16085	10.71	-0.227305
47	16235	10.81	-0.227305
47	16385	10.91	-0.227305
47	16539	11.01	-0.227305
47	16689	11.11	-0.227305
47	16839	11.21	-0.227305
47	16989	11.31	-0.227305
47	17140	11.41	-0.227305
47	17290	11.51	-0.227305
47	17440	11.61	-0.227305
47	17590	11.71	-0.227305
47	17740	11.81	-0.227305
47	17891	11.91	-0.00372295
47	18045	12.01	0.266423
47	18195	12.11	0.488038
47	18345	12.21	0.669838
47	18495	12.31	0.818978
47	18645	12.41	0.941325
47	18795	12.51	1.04169
47	18945	12.61	1.12403
47	19095	12.71	1.19157
47	19245	12.81	1.24698
47	19395	12.91	1.28852
47	19549	13.01	1.30145
47	19699	13.11	1.28871
47	19849	13.21	1.25515
47	19999	13.31	1.2051
47	20149	13.41	1.14243
47	20299	13.51	1.07053
47	20449	13.61	0.99234
47	20599	13.71	0.910403
47	20749	13.81	0.826856
47	20899	13.91	0.743489
47	21053	14.01	0.661763
47	21203	14.11	0.582851
47	21353	14.21	0.507661
47	21503	14.31	0.436874
47	21653	14.41	0.370968
47	21803	14.51	0.310248
47	21953	14.61	0.254873
47	22103	14.71	0.204874
47	22253	14.81	0.160183
47	22403	14.91	0.120648
47	22557	15.01	0.0860517
47	22707	15.11	0.0561271
47	22857	15.21	0.0305718
47	23007	15.31	0.00905927
47	23157	15.41	-0.00875101
47	23307	15.51	-0.0232047
47	23457	15.61	-0.0346455
47	23607	15.71	-0.0434096
47	23757	15.81	-0.0498206
47	23907	15.91	-0.0541863
47	24061	16.01	-0.0567958
47	24211	16.11	-0.0579178
47	24361	16.21	-0.0577995
47	24511	16.31	-0.0566657
47	24661	16.41	-0.0547193
47	24811	16.51	-0.0521411
47	24961	16.61	-0.0490909
47	25111	16.71	-0.0457081
47	25261	16.81	-0.0421133
47	25411	16.91	-0.038409
47	25565	17.01	-0.0346812
47	25715	17.11	-0.0310011
47	25865	17.21	-0.0274261
47	26015	17.31	-0.0240015
47	26165	17.41	-0.0207616
47	26315	17.51	-0.0177314
47	26465	17.61	-0.0149275
47	26615	17.71	-0.0123596
47	26765	17.81	-0.0100314
47	26915	17.91	-0.00794151
47	27069	18.01	-0.00608463
47	27219	18.11	-0.00445222
47	27369	18.21	-0.00303322
47	27519	18.31	-0.00181474
47	27669	18.41	-0.000782609
47	27819	18.51	7.81319e-05
47	27969	18.61	0.000782838
47	28119	18.71	0.0013469
47	28269	18.81	0.00178547
47	28419	18.91	0.00211323
47	28573	19.01	0.0023442
47	28723	19.11	0.00249163
47	28873	19.21	0.00256789
47	29023	19.31	0.00258439
47	29173	19.41	0.00255157
47	29323	19.51	0.00247888
47	29473	19.61	0.00237479
47	29623	19.71	0.00224681
47	29773	19.81	0.00210152
47	29923	19.91	0.00194464
47	30077	20.01	0.00178106
47	30227	20.11	0.00161493
47	30377	20.21	0.00144968
47	30527	20.31	0.00128811
47	30677	20.41	0.00113247
47	30827	20.51	0.000984474
47	30977	20.61	0.00084541
47	31127	20.71	0.000716166
47	31277	20.81	0.000597296
47	31427	20.91	0.000489068
47	31581	21.01	0.000391512
47	31731	21.11	0.000304459
47	31881	21.21	0.000227585
47	32031	21.31	0.00016044
47	32181	21.41	0.00010248
47	32331	21.51	5.30939e-05
47	32481	21.61	1.16282e-05
47	32631	21.71	-2.25967e-05
47	32781	21.81	-5.02678e-05
47	32931	21.91	-7.20661e-05
47	33085	22.01	-8.86557e-05
47	33235	22.11	-0.000100675
47	33385	22.21	-0.000108729
47	33535	22.31	-0.000113386
47	33685	22.41	-0.000115173
47	33835	22.51	-0.000114573
47	33985	22.61	-0.000112026
47	34135	22.71	-0.000107927
47	34285	22.81	-0.000102629
47	34435	22.91	-9.64417e-05
47	34589	23.01	-8.96363e-05
47	34739	23.11	-8.24459e-05
47	34889	23.21	-7.50684e-05
47	35039	23.31	-6.767e-05
47	35189	23.41	-6.03869e-05
47	35339	23.51	-5.33292e-05
47	35489	23.61	-4.65829e-05
47	35639	23.71	-4.02131e-05
47	35789	23.81	-3.42663e-05
47	35939	23.91	-2.87734e-05
47	36093	24.01	-2.37511e-05
47	36243	24.11	-1.92051e-05
47	36393	24.21	-1.51314e-05
47	36543	24.31	-1.15181e-05
47	36693	24.41	-8.34738e-06
47	36843	24.51	-5.59655e-06
47	36993	24.61	-3.23953e-06
47	37143	24.71	-1.24786e-06
47	37293	24.81	4.08395e-07
47	37443	24.91	1.75977e-06
47	37597	25.01	2.83681e-06
47	37747	25.11	3.66948e-06
47	37897	25.21	4.28674e-06
47	38047	25.31	4.71622e-06
47	38197	25.41	4.98395e-06
47	38347	25.51	5.1142e-06
47	38497	25.61	5.12932e-06
47	38647	25.71	5.04972e-06
47	38797	25.81	4.89385e-06
47	38947	25.91	4.67821e-06
47	39101	26.01	4.4174e-06
47	39251	26.11	4.12422e-06
47	39401	26.21	3.80974e-06
47	39551	26.31	3.48342e-06
47	39701	26.41	3.15325e-06
47	39851	26.51	2.82583e-06
47	40001	26.61	2.50656e-06
47	40151	26.71	2.19968e-06
47	40301	26.81	1.90849e-06
47	40451	26.91	1.63537e-06
47	40605	27.01	1.38199e-06
47	40755	27.11	1.14934e-06
47	40905	27.21	9.37878e-07
47	41055	27.31	7.47581e-07
47	41205	27.41	5.78062e-07
47	41355	27.51	4.2863e-07
47	41505	27.61	2.98355e-07
47	41655	27.71	1.86134e-07
47	41805	27.81	9.07345e-08
47	41955	27.91	1.08464e-08
47	42109	28.01	-5.48845e-08
47	42259	28.11	-1.07822e-07
47	42409	28.21	-1.49316e-07
47	42559	28.31	-1.80677e-07
47	42709	28.41	-2.03163e-07
47	42859	28.51	-2.17965e-07
47	43009	28.61	-2.26199e-07
47	43159	28.71	-2.28897e-07
47	43309	28.81	-2.27004e-07
47	43459	28.91	-2.2138e-07
47	43613	29.01	-2.12796e-07
47	43763	29.11	-2.01937e-07
47	43913	29.21	-1.89408e-07
47	44063	29.31	-1.75731e-07
47	44213	29.41	-1.6136e-07
47	44363	29.51	-1.46676e-07
47	44513	29.61	-1.32e-07
47	44663	29.71	-1.17593e-07
47	44813	29.81	-1.03665e-07
47	44963	29.91	-9.03796e-08
47	45117	30.01	-7.78602e-08
47	45267	30.11	-6.61935e-08
47	45417	30.21	-5.54355e-08
47	45567	30.31	-4.56158e-08
47	45717	30.41	-3.67425e-08
47	45867	30.51	-2.8804e-08
47	46017	30.61	-2.17749e-08
47	46167	30.71	-1.56184e-08
47	46317	30.81	-1.02872e-08
47	46467	30.91	-5.72946e-09
47	46621	31.01	-1.88827e-09
47	46771	31.11	1.2971e-09
47	46921	31.21	3.88702e-09
47	47071	31.31	5.94191e-09
47	47221	31.41	7.52145e-09
47	47371	31.51	8.68212e-09
47	47521	31.61	9.47828e-09
47	47671	31.71	9.96145e-09
47	47821	31.81	1.01789e-08
47	47971	31.91	1.0175e-08
47	48125	32.01	9.98952e-09
47	48275	32.11	9.65805e-09
47	48425	32.21	9.21361e-09
47	48575	32.31	8.68283e-09
47	48725	32.41	8.09202e-09
47	48875	32.51	7.46248e-09
47	49025	32.61	6.81162e-09
51	26	0.21	1.6
51	176	0.31	1.6
51	326	0.41	1.6
51	476	0.51	1.6
51	626	0.61	1.6
51	776	0.71	1.6
51	926	0.81	1.6
51	1076	0.91	1.6
51	1230	1.01	1.6
51	1381	1.11	1.6
51	1532	1.21	1.6
51	1683	1.31	1.6
51	2099	1.41	1.6
51	2249	1.51	1.6
51	2399	1.61	1.6
51	2549	1.71	1.6
51	2699	1.81	1.6
51	2849	1.91	1.6
51	3003	2.01	1.6
51	3153	2.11	1.6
51	3303	2.21	1.6
51	3453	2.31	1.6
51	3603	2.41	1.6
51	3753	2.51	1.6
51	3903	2.61	1.6
51	4053	2.71	1.6
51	4203	2.81	1.6
51	4353	2.91	1.6
51	4507	3.01	1.6
51	4657	3.11	1.6
51	4807	3.21	1.6
51	4957	3.31	1.6
51	5107	3.41	1.6
51	5257	3.51	1.6
51	5407	3.61	1.6
51	5557	3.71	1.6
51	5707	3.81	1.6
51	5857	3.91	1.6
51	6011	4.01	1.6
51	6161	4.11	1.6
51	6311	4.21	1.6
51	6461	4.31	1.6
51	6611	4.41	1.6
51	6761	4.51	1.6
51	6911	4.61	1.6
51	7061	4.71	1.6
51	7211	4.81	1.6
51	7361	4.91	1.6
51	7515	5.01	1.6
51	7665	5.11	1.6
51	7815	5.21	1.6
51	7965	5.31	1.6
51	8115	5.41	1.6
51	8265	5.51	1.6
51	8415	5.61	1.6
51	8565	5.71	1.6
51	8715	5.81	1.6
51	8865	5.91	1.6
51	9019	6.01	1.6
51	9169	6.11	1.6
51	9319	6.21	1.6
51	9469	6.31	1.6
51	9619	6.41	1.6
51	9769	6.51	1.6
51	9919	6.61	1.6
51	10069	6.71	1.6
51	10219	6.81	1.6
51	10369	6.91	1.6
51	10523	7.01	1.6
51	10673	7.11	1.6
51	10823	7.21	1.6
51	10973	7.31	1.6
51	11123	7.41	1.6
51	11273	7.51	1.6
51	11423	7.61	1.6
51	11573	7.71	1.6
51	11723	7.81	1.6
51	11873	7.91	1.6
51	12027	8.01	1.6
51	12177	8.11	1.6
51	12327	8.21	1.6
51	12477	8.31	1.6
51	12627	8.41	1.6
51	12777	8.51	1.6
51	12927	8.61	1.6
51	13077	8.71	1.6
51	13227	8.81	1.6
51	13377	8.91	1.6
51	13531	9.01	1.6
51	13681	9.11	1.6
51	13831	9.21	1.6
51	13981	9.31	1.6
51	14131	9.41	1.6
51	14281	9.51	1.6
51	14431	9.61	1.6
51	14581	9.71	1.6
51	14731	9.81	1.6
51	14881	9.91	1.6
51	15035	10.01	1.6
51	15185	10.11	1.6
51	15335	10.21	1.6
51	15485	10.31	1.6
51	15635	10.41	1.6
51	15785	10.51	1.6
51	15935	10.61	1.6
51	16085	10.71	1.6
51	16235	10.81	1.6
51	16385	10.91	1.6
51	16539	11.01	1.6
51	16689	11.11	1.6
51	16839	11.21	1.6
51	16989	11.31	1.6
51	17140	11.41	1.6
51	17290	11.51	1.6
51	17440	11.61	1.6
51	17590	11.71	1.6
51	17740	11.81	1.6
51	17891	11.91	1.6
51	18045	12.01	1.6
51	18195	12.11	1.6
51	18345	12.21	1.6
51	18495	12.31	1.6
51	18645	12.41	1.6
51	18795	12.51	1.6
51	18945	12.61	1.6
51	19095	12.71	1.6
51	19245	12.81	1.6
51	19395	12.91	1.6
51	19549	13.01	1.6
51	19699	13.11	1.6
51	19849	13.21	1.6
51	19999	13.31	1.6
51	20149	13.41	1.6
51	20299	13.51	1.6
51	20449	13.61	1.6
51	20599	13.71	1.6
51	20749	13.81	1.6
51	20899	13.91	1.6
51	21053	14.01	1.6
51	21203	14.11	1.6
51	21353	14.21	1.6
51	21503	14.31	1.6
51	21653	14.41	1.6
51	21803	14.51	1.6
51	21953	14.61	1.6
51	22103	14.71	1.6
51	22253	14.81	1.6
51	22403	14.91	1.6
51	22557	15.01	1.6
51	22707	15.11	1.6
51	22857	15.21	1.6
51	23007	15.31	1.6
51	23157	15.41	1.6
51	23307	15.51	1.6
51	23457	15.61	1.6
51	23607	15.71	1.6
51	23757	15.81	1.6
51	23907	15.91	1.6
51	24061	16.01	1.6
51	24211	16.11	1.6
51	24361	16.21	1.6
51	24511	16.31	1.6
51	24661	16.41	1.6
51	24811	16.51	1.6
51	24961	16.61	1.6
51	25111	16.71	1.6
51	25261	16.81	1.6
51	25411	16.91	1.6
51	25565	17.01	1.6
51	25715	17.11	1.6
51	25865	17.21	1.6
51	26015	17.31	1.6
51	26165	17.41	1.6
51	26315	17.51	1.6
51	26465	17.61	1.6
51	26615	17.71	1.6
51	26765	17.81	1.6
51	26915	17.91	1.6
51	27069	18.01	1.6
51	27219	18.11	1.6
51	27369	18.21	1.6
51	27519	18.31	1.6
51	27669	18.41	1.6
51	27819	18.51	1.6
51	27969	18.61	1.6
51	28119	18.71	1.6
51	28269	18.81	1.6
51	28419	18.91	1.6
51	28573	19.01	1.6
51	28723	19.11	1.6
51	28873	19.21	1.6
51	29023	19.31	1.6
51	29173	19.41	1.6
51	29323	19.51	1.6
51	29473	19.61	1.6
51	29623	19.71	1.6
51	29773	19.81	1.6
51	29923	19.91	1.6
51	30077	20.01	1.6
51	30227	20.11	1.6
51	30377	20.21	1.6
51	30527	20.31	1.6
51	30677	20.41	1.6
51	30827	20.51	1.6
51	30977	20.61	1.6
51	31127	20.71	1.6
51	31277	20.81	1.6
51	31427	20.91	1.6
51	31581	21.01	1.6
51	31731	21.11	1.6
51	31881	21.21	1.6
51	32031	21.31	1.6
51	32181	21.41	1.6
51	32331	21.51	1.6
51	32481	21.61	1.6
51	32631	21.71	1.6
51	32781	21.81	1.6
51	32931	21.91	1.6
51	33085	22.01	1.6
51	33235	22.11	1.6
51	33385	22.21	1.6
51	33535	22.31	1.6
51	33685	22.41	1.6
51	33835	22.51	1.6
51	33985	22.61	1.6
51	34135	22.71	1.6
51	34285	22.81	1.6
51	34435	22.91	1.6
51	34589	23.01	1.6
51	34739	23.11	1.6
51	34889	23.21	1.6
51	35039	23.31	1.6
51	35189	23.41	1.6
51	35339	23.51	1.6
51	35489	23.61	1.6
51	35639	23.71	1.6
51	35789	23.81	1.6
51	35939	23.91	1.6
51	36093	24.01	1.6
51	36243	24.11	1.6
51	36393	24.21	1.6
51	36543	24.31	1.6
51	36693	24.41	1.6
51	36843	24.51	1.6
51	36993	24.61	1.6
51	37143	24.71	1.6
51	37293	24.81	1.6
51	37443	24.91	1.6
51	37597	25.01	1.6
51	37747	25.11	1.6
51	37897	25.21	1.6
51	38047	25.31	1.6
51	38197	25.41	1.6
51	38347	25.51	1.6
51	38497	25.61	1.6
51	38647	25.71	1.6
51	38797	25.81	1.6
51	38947	25.91	1.6
51	39101	26.01	1.6
51	39251	26.11	1.6
51	39401	26.21	1.6
51	39551	26.31	1.6
51	39701	26.41	1.6
51	39851	26.51	1.6
51	40001	26.61	1.6
51	40151	26.71	1.6
51	40301	26.81	1.6
51	40451	26.91	1.6
51	40605	27.01	1.6
51	40755	27.11	1.6
51	40905	27.21	1.6
51	41055	27.31	1.6
51	41205	27.41	1.6
51	41355	27.51	1.6
51	41505	27.61	1.6
51	41655	27.71	1.6
51	41805	27.81	1.6
51	41955	27.91	1.6
51	42109	28.01	1.6
51	42259	28.11	1.6
51	42409	28.21	1.6
51	42559	28.31	1.6
51	42709	28.41	1.6
51	42859	28.51	1.6
51	43009	28.61	1.6
51	43159	28.71	1.6
51	43309	28.81	1.6
51	43459	28.91	1.6
51	43613	29.01	1.6
51	43763	29.11	1.6
51	43913	29.21	1.6
51	44063	29.31	1.6
51	44213	29.41	1.6
51	44363	29.51	1.6
51	44513	29.61	1.6
51	44663	29.71	1.6
51	44813	29.81	1.6
51	44963	29.91	1.6
51	45117	30.01	1.6
51	45267	30.11	1.6
51	45417	30.21	1.6
51	45567	30.31	1.6
51	45717	30.41	1.6
51	45867	30.51	1.6
51	46017	30.61	1.6
51	46167	30.71	1.6
51	46317	30.81	1.6
51	46467	30.91	1.6
51	46621	31.01	1.6
51	46771	31.11	1.6
51	46921	31.21	1.6
51	47071	31.31	1.6
51	47221	31.41	1.6
51	47371	31.51	1.6
51	47521	31.61	1.6
51	47671	31.71	1.6
51	47821	31.81	1.6
51	47971	31.91	1.6
51	48125	32.01	1.6
51	48275	32.11	1.6
51	48425	32.21	1.6
51	48575	32.31	1.6
51	48725	32.41	1.6
51	48875	32.51	1.6
51	49025	32.61	1.6
50	26	0.21	526.5
50	176	0.31	524.833
50	326	0.41	523.166
50	476	0.51	521.499
50	626	0.61	519.832
50	776	0.71	518.165
50	926	0.81	516.498
50	1076	0.91	514.831
50	1230	1.01	513.164
50	1381	1.11	511.497
50	1532	1.21	509.831
50	1683	1.31	508.164
50	2099	1.41	506.497
50	2249	1.51	504.83
50	2399	1.61	503.164
50	2549	1.71	501.499
50	2699	1.81	499.835
50	2849	1.91	498.173
50	3003	2.01	496.511
50	3153	2.11	494.852
50	3303	2.21	493.194
50	3453	2.31	491.538
50	3603	2.41	489.884
50	3753	2.51	488.232
50	3903	2.61	486.582
50	4053	2.71	484.935
50	4203	2.81	483.289
50	4353	2.91	481.645
50	4507	3.01	480.004
50	4657	3.11	478.365
50	4807	3.21	476.727
50	4957	3.31	475.093
50	5107	3.41	473.46
50	5257	3.51	471.83
50	5407	3.61	470.202
50	5557	3.71	468.576
50	5707	3.81	466.952
50	5857	3.91	465.331
50	6011	4.01	463.711
50	6161	4.11	462.095
50	6311	4.21	460.48
50	6461	4.31	458.868
50	6611	4.41	457.258
50	6761	4.51	455.65
50	6911	4.61	454.044
50	7061	4.71	452.441
50	7211	4.81	450.84
50	7361	4.91	449.241
50	7515	5.01	447.645
50	7665	5.11	446.051
50	7815	5.21	444.459
50	7965	5.31	442.869
50	8115	5.41	441.282
50	8265	5.51	439.697
50	8415	5.61	438.114
50	8565	5.71	436.533
50	8715	5.81	434.955
50	8865	5.91	433.379
50	9019	6.01	431.805
50	9169	6.11	430.234
50	9319	6.21	428.665
50	9469	6.31	427.098
50	9619	6.41	425.533
50	9769	6.51	423.971
50	9919	6.61	422.411
50	10069	6.71	420.853
50	10219	6.81	419.297
50	10369	6.91	417.744
50	10523	7.01	416.193
50	10673	7.11	414.644
50	10823	7.21	413.098
50	10973	7.31	411.554
50	11123	7.41	410.012
50	11273	7.51	408.472
50	11423	7.61	406.935
50	11573	7.71	405.4
50	11723	7.81	403.867
50	11873	7.91	402.336
50	12027	8.01	400.808
50	12177	8.11	399.282
50	12327	8.21	397.758
50	12477	8.31	396.237
50	12627	8.41	394.718
50	12777	8.51	393.201
50	12927	8.61	391.686
50	13077	8.71	390.174
50	13227	8.81	388.664
50	13377	8.91	387.156
50	13531	9.01	385.65
50	13681	9.11	384.147
50	13831	9.21	382.646
50	13981	9.31	381.147
50	14131	9.41	379.651
50	14281	9.51	378.157
50	14431	9.61	376.665
50	14581	9.71	375.175
50	14731	9.81	373.688
50	14881	9.91	372.203
50	15035	10.01	370.72
50	15185	10.11	369.239
50	15335	10.21	367.761
50	15485	10.31	366.285
50	15635	10.41	364.811
50	15785	10.51	363.34
50	15935	10.61	361.871
50	16085	10.71	360.404
50	16235	10.81	358.939
50	16385	10.91	357.477
50	16539	11.01	356.017
50	16689	11.11	354.559
50	16839	11.21	353.103
50	16989	11.31	351.65
50	17140	11.41	350.199
50	17290	11.51	348.751
50	17440	11.61	347.304
50	17590	11.71	345.86
50	17740	11.81	344.418
50	17891	11.91	342.978
50	18045	12.01	341.538
50	18195	12.11	340.096
50	18345	12.21	338.648
50	18495	12.31	337.194
50	18645	12.41	335.731
50	18795	12.51	334.259
50	18945	12.61	332.776
50	19095	12.71	331.283
50	19245	12.81	329.777
50	19395	12.91	328.259
50	19549	13.01	326.728
50	19699	13.11	325.184
50	19849	13.21	323.627
50	19999	13.31	322.057
50	20149	13.41	320.476
50	20299	13.51	318.883
50	20449	13.61	317.28
50	20599	13.71	315.666
50	20749	13.81	314.044
50	20899	13.91	312.413
50	21053	14.01	310.775
50	21203	14.11	309.13
50	21353	14.21	307.48
50	21503	14.31	305.825
50	21653	14.41	304.165
50	21803	14.51	302.501
50	21953	14.61	300.835
50	22103	14.71	299.166
50	22253	14.81	297.495
50	22403	14.91	295.822
50	22557	15.01	294.148
50	22707	15.11	292.473
50	22857	15.21	290.798
50	23007	15.31	289.122
50	23157	15.41	287.447
50	23307	15.51	285.771
50	23457	15.61	284.096
50	23607	15.71	282.421
50	23757	15.81	280.746
50	23907	15.91	279.072
50	24061	16.01	277.399
50	24211	16.11	275.726
50	24361	16.21	274.053
50	24511	16.31	272.381
50	24661	16.41	270.71
50	24811	16.51	269.039
50	24961	16.61	267.369
50	25111	16.71	265.7
50	25261	16.81	264.03
50	25411	16.91	262.362
50	25565	17.01	260.693
50	25715	17.11	259.025
50	25865	17.21	257.357
50	26015	17.31	255.69
50	26165	17.41	254.023
50	26315	17.51	252.356
50	26465	17.61	250.689
50	26615	17.71	249.022
50	26765	17.81	247.355
50	26915	17.91	245.689
50	27069	18.01	244.022
50	27219	18.11	242.356
50	27369	18.21	240.69
50	27519	18.31	239.023
50	27669	18.41	237.357
50	27819	18.51	235.691
50	27969	18.61	234.025
50	28119	18.71	232.358
50	28269	18.81	230.692
50	28419	18.91	229.026
50	28573	19.01	227.359
50	28723	19.11	225.693
50	28873	19.21	224.027
50	29023	19.31	222.36
50	29173	19.41	220.694
50	29323	19.51	219.027
50	29473	19.61	217.361
50	29623	19.71	215.694
50	29773	19.81	214.028
50	29923	19.91	212.361
50	30077	20.01	210.695
50	30227	20.11	209.028
50	30377	20.21	207.362
50	30527	20.31	205.695
50	30677	20.41	204.028
50	30827	20.51	202.362
50	30977	20.61	200.695
50	31127	20.71	199.028
50	31277	20.81	197.362
50	31427	20.91	195.695
50	31581	21.01	194.028
50	31731	21.11	192.362
50	31881	21.21	190.695
50	32031	21.31	189.028
50	32181	21.41	187.362
50	32331	21.51	185.695
50	32481	21.61	184.028
50	32631	21.71	182.362
50	32781	21.81	180.695
50	32931	21.91	179.028
50	33085	22.01	177.361
50	33235	22.11	175.695
50	33385	22.21	174.028
50	33535	22.31	172.361
50	33685	22.41	170.695
50	33835	22.51	169.028
50	33985	22.61	167.361
50	34135	22.71	165.695
50	34285	22.81	164.028
50	34435	22.91	162.361
50	34589	23.01	160.695
50	34739	23.11	159.028
50	34889	23.21	157.361
50	35039	23.31	155.695
50	35189	23.41	154.028
50	35339	23.51	152.361
50	35489	23.61	150.695
50	35639	23.71	149.028
50	35789	23.81	147.361
50	35939	23.91	145.695
50	36093	24.01	144.028
50	36243	24.11	142.361
50	36393	24.21	140.695
50	36543	24.31	139.028
50	36693	24.41	137.361
50	36843	24.51	135.695
50	36993	24.61	134.028
50	37143	24.71	132.361
50	37293	24.81	130.695
50	37443	24.91	129.028
50	37597	25.01	127.361
50	37747	25.11	125.695
50	37897	25.21	124.028
50	38047	25.31	122.361
50	38197	25.41	120.695
50	38347	25.51	119.028
50	38497	25.61	117.361
50	38647	25.71	115.695
50	38797	25.81	114.028
50	38947	25.91	112.361
50	39101	26.01	110.695
50	39251	26.11	109.028
50	39401	26.21	107.361
50	39551	26.31	105.695
50	39701	26.41	104.028
50	39851	26.51	102.361
50	40001	26.61	100.695
50	40151	26.71	99.0279
50	40301	26.81	97.3612
50	40451	26.91	95.6945
50	40605	27.01	94.0279
50	40755	27.11	92.3612
50	40905	27.21	90.6945
50	41055	27.31	89.0278
50	41205	27.41	87.3612
50	41355	27.51	85.6945
50	41505	27.61	84.0278
50	41655	27.71	82.3612
50	41805	27.81	80.6945
50	41955	27.91	79.0278
50	42109	28.01	77.3612
50	42259	28.11	75.6945
50	42409	28.21	74.0278
50	42559	28.31	72.3611
50	42709	28.41	70.6945
50	42859	28.51	69.0278
50	43009	28.61	67.3611
50	43159	28.71	65.6945
50	43309	28.81	64.0278
50	43459	28.91	62.3611
50	43613	29.01	60.6945
50	43763	29.11	59.0278
50	43913	29.21	57.3611
50	44063	29.31	55.6944
50	44213	29.41	54.0278
50	44363	29.51	52.3611
50	44513	29.61	50.6944
50	44663	29.71	49.0278
50	44813	29.81	47.3611
50	44963	29.91	45.6944
50	45117	30.01	44.0278
50	45267	30.11	42.3611
50	45417	30.21	40.6944
50	45567	30.31	39.0277
50	45717	30.41	37.3611
50	45867	30.51	35.6944
50	46017	30.61	34.0277
50	46167	30.71	32.3611
50	46317	30.81	30.6944
50	46467	30.91	29.0277
50	46621	31.01	27.3611
50	46771	31.11	25.6944
50	46921	31.21	24.0277
50	47071	31.31	22.361
50	47221	31.41	20.6944
50	47371	31.51	19.0277
50	47521	31.61	17.361
50	47671	31.71	15.6944
50	47821	31.81	14.0277
50	47971	31.91	12.361
50	48125	32.01	10.6944
50	48275	32.11	9.02768
50	48425	32.21	7.36101
50	48575	32.31	5.69434
50	48725	32.41	4.02767
50	48875	32.51	2.361
50	49025	32.61	0.694333
49	26	0.21	16.67
49	176	0.31	16.6699
49	326	0.41	16.6698
49	476	0.51	16.6696
49	626	0.61	16.6694
49	776	0.71	16.6692
49	926	0.81	16.669
49	1076	0.91	16.6688
49	1230	1.01	16.6686
49	1381	1.11	16.6684
49	1532	1.21	16.6682
49	1683	1.31	16.668
49	2099	1.41	16.6674
49	2249	1.51	16.6634
49	2399	1.61	16.656
49	2549	1.71	16.6459
49	2699	1.81	16.6335
49	2849	1.91	16.6192
49	3003	2.01	16.6034
49	3153	2.11	16.5864
49	3303	2.21	16.5683
49	3453	2.31	16.5495
49	3603	2.41	16.5299
49	3753	2.51	16.5097
49	3903	2.61	16.4891
49	4053	2.71	16.4681
49	4203	2.81	16.4468
49	4353	2.91	16.4253
49	4507	3.01	16.4035
49	4657	3.11	16.3815
49	4807	3.21	16.3595
49	4957	3.31	16.3373
49	5107	3.41	16.315
49	5257	3.51	16.2926
49	5407	3.61	16.2701
49	5557	3.71	16.2477
49	5707	3.81	16.2251
49	5857	3.91	16.2026
49	6011	4.01	16.18
49	6161	4.11	16.1573
49	6311	4.21	16.1347
49	6461	4.31	16.112
49	6611	4.41	16.0894
49	6761	4.51	16.0667
49	6911	4.61	16.044
49	7061	4.71	16.0213
49	7211	4.81	15.9986
49	7361	4.91	15.9759
49	7515	5.01	15.9532
49	7665	5.11	15.9305
49	7815	5.21	15.9077
49	7965	5.31	15.885
49	8115	5.41	15.8623
49	8265	5.51	15.8396
49	8415	5.61	15.8168
49	8565	5.71	15.7941
49	8715	5.81	15.7714
49	8865	5.91	15.7487
49	9019	6.01	15.7259
49	9169	6.11	15.7032
49	9319	6.21	15.6805
49	9469	6.31	15.6578
49	9619	6.41	15.635
49	9769	6.51	15.6123
49	9919	6.61	15.5896
49	10069	6.71	15.5668
49	10219	6.81	15.5441
49	10369	6.91	15.5214
49	10523	7.01	15.4986
49	10673	7.11	15.4759
49	10823	7.21	15.4532
49	10973	7.31	15.4305
49	11123	7.41	15.4077
49	11273	7.51	15.385
49	11423	7.61	15.3623
49	11573	7.71	15.3395
49	11723	7.81	15.3168
49	11873	7.91	15.2941
49	12027	8.01	15.2713
49	12177	8.11	15.2486
49	12327	8.21	15.2259
49	12477	8.31	15.2031
49	12627	8.41	15.1804
49	12777	8.51	15.1577
49	12927	8.61	15.135
49	13077	8.71	15.1122
49	13227	8.81	15.0895
49	13377	8.91	15.0668
49	13531	9.01	15.044
49	13681	9.11	15.0213
49	13831	9.21	14.9986
49	13981	9.31	14.9758
49	14131	9.41	14.9531
49	14281	9.51	14.9304
49	14431	9.61	14.9077
49	14581	9.71	14.8849
49	14731	9.81	14.8622
49	14881	9.91	14.8395
49	15035	10.01	14.8167
49	15185	10.11	14.794
49	15335	10.21	14.7713
49	15485	10.31	14.7485
49	15635	10.41	14.7258
49	15785	10.51	14.7031
49	15935	10.61	14.6803
49	16085	10.71	14.6576
49	16235	10.81	14.6349
49	16385	10.91	14.6122
49	16539	11.01	14.5894
49	16689	11.11	14.5667
49	16839	11.21	14.544
49	16989	11.31	14.5212
49	17140	11.41	14.4985
49	17290	11.51	14.4758
49	17440	11.61	14.453
49	17590	11.71	14.4303
49	17740	11.81	14.4076
49	17891	11.91	14.394
49	18045	12.01	14.4089
49	18195	12.11	14.4481
49	18345	12.21	14.5072
49	18495	12.31	14.5826
49	18645	12.41	14.6714
49	18795	12.51	14.7713
49	18945	12.61	14.8801
49	19095	12.71	14.9963
49	19245	12.81	15.1186
49	19395	12.91	15.2458
49	19549	13.01	15.3756
49	19699	13.11	15.5052
49	19849	13.21	15.6324
49	19999	13.31	15.7553
49	20149	13.41	15.8724
49	20299	13.51	15.9828
49	20449	13.61	16.0856
49	20599	13.71	16.1803
49	20749	13.81	16.2668
49	20899	13.91	16.3449
49	21053	14.01	16.4147
49	21203	14.11	16.4765
49	21353	14.21	16.5306
49	21503	14.31	16.5775
49	21653	14.41	16.6175
49	21803	14.51	16.6512
49	21953	14.61	16.6791
49	22103	14.71	16.7018
49	22253	14.81	16.7198
49	22403	14.91	16.7336
49	22557	15.01	16.7437
49	22707	15.11	16.7507
49	22857	15.21	16.7548
49	23007	15.31	16.7567
49	23157	15.41	16.7566
49	23307	15.51	16.7549
49	23457	15.61	16.7519
49	23607	15.71	16.7479
49	23757	15.81	16.7432
49	23907	15.91	16.738
49	24061	16.01	16.7324
49	24211	16.11	16.7267
49	24361	16.21	16.7209
49	24511	16.31	16.7151
49	24661	16.41	16.7096
49	24811	16.51	16.7042
49	24961	16.61	16.6992
49	25111	16.71	16.6945
49	25261	16.81	16.6901
49	25411	16.91	16.6861
49	25565	17.01	16.6824
49	25715	17.11	16.6792
49	25865	17.21	16.6763
49	26015	17.31	16.6737
49	26165	17.41	16.6715
49	26315	17.51	16.6696
49	26465	17.61	16.668
49	26615	17.71	16.6666
49	26765	17.81	16.6655
49	26915	17.91	16.6646
49	27069	18.01	16.664
49	27219	18.11	16.6634
49	27369	18.21	16.6631
49	27519	18.31	16.6628
49	27669	18.41	16.6627
49	27819	18.51	16.6627
49	27969	18.61	16.6627
49	28119	18.71	16.6628
49	28269	18.81	16.663
49	28419	18.91	16.6632
49	28573	19.01	16.6634
49	28723	19.11	16.6637
49	28873	19.21	16.6639
49	29023	19.31	16.6642
49	29173	19.41	16.6644
49	29323	19.51	16.6647
49	29473	19.61	16.6649
49	29623	19.71	16.6652
49	29773	19.81	16.6654
49	29923	19.91	16.6656
49	30077	20.01	16.6658
49	30227	20.11	16.6659
49	30377	20.21	16.6661
49	30527	20.31	16.6662
49	30677	20.41	16.6663
49	30827	20.51	16.6664
49	30977	20.61	16.6665
49	31127	20.71	16.6666
49	31277	20.81	16.6667
49	31427	20.91	16.6667
49	31581	21.01	16.6668
49	31731	21.11	16.6668
49	31881	21.21	16.6668
49	32031	21.31	16.6669
49	32181	21.41	16.6669
49	32331	21.51	16.6669
49	32481	21.61	16.6669
49	32631	21.71	16.6669
49	32781	21.81	16.6669
49	32931	21.91	16.6669
49	33085	22.01	16.6669
49	33235	22.11	16.6669
49	33385	22.21	16.6668
49	33535	22.31	16.6668
49	33685	22.41	16.6668
49	33835	22.51	16.6668
49	33985	22.61	16.6668
49	34135	22.71	16.6668
49	34285	22.81	16.6668
49	34435	22.91	16.6668
49	34589	23.01	16.6668
49	34739	23.11	16.6667
49	34889	23.21	16.6667
49	35039	23.31	16.6667
49	35189	23.41	16.6667
49	35339	23.51	16.6667
49	35489	23.61	16.6667
49	35639	23.71	16.6667
49	35789	23.81	16.6667
49	35939	23.91	16.6667
49	36093	24.01	16.6667
49	36243	24.11	16.6667
49	36393	24.21	16.6667
49	36543	24.31	16.6667
49	36693	24.41	16.6667
49	36843	24.51	16.6667
49	36993	24.61	16.6667
49	37143	24.71	16.6667
49	37293	24.81	16.6667
49	37443	24.91	16.6667
49	37597	25.01	16.6667
49	37747	25.11	16.6667
49	37897	25.21	16.6667
49	38047	25.31	16.6667
49	38197	25.41	16.6667
49	38347	25.51	16.6667
49	38497	25.61	16.6667
49	38647	25.71	16.6667
49	38797	25.81	16.6667
49	38947	25.91	16.6667
49	39101	26.01	16.6667
49	39251	26.11	16.6667
49	39401	26.21	16.6667
49	39551	26.31	16.6667
49	39701	26.41	16.6667
49	39851	26.51	16.6667
49	40001	26.61	16.6667
49	40151	26.71	16.6667
49	40301	26.81	16.6667
49	40451	26.91	16.6667
49	40605	27.01	16.6667
49	40755	27.11	16.6667
49	40905	27.21	16.6667
49	41055	27.31	16.6667
49	41205	27.41	16.6667
49	41355	27.51	16.6667
49	41505	27.61	16.6667
49	41655	27.71	16.6667
49	41805	27.81	16.6667
49	41955	27.91	16.6667
49	42109	28.01	16.6667
49	42259	28.11	16.6667
49	42409	28.21	16.6667
49	42559	28.31	16.6667
49	42709	28.41	16.6667
49	42859	28.51	16.6667
49	43009	28.61	16.6667
49	43159	28.71	16.6667
49	43309	28.81	16.6667
49	43459	28.91	16.6667
49	43613	29.01	16.6667
49	43763	29.11	16.6667
49	43913	29.21	16.6667
49	44063	29.31	16.6667
49	44213	29.41	16.6667
49	44363	29.51	16.6667
49	44513	29.61	16.6667
49	44663	29.71	16.6667
49	44813	29.81	16.6667
49	44963	29.91	16.6667
49	45117	30.01	16.6667
49	45267	30.11	16.6667
49	45417	30.21	16.6667
49	45567	30.31	16.6667
49	45717	30.41	16.6667
49	45867	30.51	16.6667
49	46017	30.61	16.6667
49	46167	30.71	16.6667
49	46317	30.81	16.6667
49	46467	30.91	16.6667
49	46621	31.01	16.6667
49	46771	31.11	16.6667
49	46921	31.21	16.6667
49	47071	31.31	16.6667
49	47221	31.41	16.6667
49	47371	31.51	16.6667
49	47521	31.61	16.6667
49	47671	31.71	16.6667
49	47821	31.81	16.6667
49	47971	31.91	16.6667
49	48125	32.01	16.6667
49	48275	32.11	16.6667
49	48425	32.21	16.6667
49	48575	32.31	16.6667
49	48725	32.41	16.6667
49	48875	32.51	16.6667
49	49025	32.61	16.6667
45	26	0.21	0
45	176	0.31	0
45	326	0.41	0
45	476	0.51	0
45	626	0.61	0
45	776	0.71	0
45	926	0.81	0
45	1076	0.91	0
45	1230	1.01	0
45	1381	1.11	0
45	1532	1.21	0
45	1683	1.31	0
45	2099	1.41	5.85439
45	2249	1.51	5.48784
45	2399	1.61	5.21818
45	2549	1.71	5.02799
45	2699	1.81	4.903
45	2849	1.91	4.83149
45	3003	2.01	4.80387
45	3153	2.11	4.81223
45	3303	2.21	4.85013
45	3453	2.31	4.91225
45	3603	2.41	4.99424
45	3753	2.51	5.09253
45	3903	2.61	5.2042
45	4053	2.71	5.32683
45	4203	2.81	5.45847
45	4353	2.91	5.59749
45	4507	3.01	5.74256
45	4657	3.11	5.8926
45	4807	3.21	6.04672
45	4957	3.31	6.20419
45	5107	3.41	6.36439
45	5257	3.51	6.52685
45	5407	3.61	6.69115
45	5557	3.71	6.85696
45	5707	3.81	7.02402
45	5857	3.91	7.1921
45	6011	4.01	7.36101
45	6161	4.11	7.53061
45	6311	4.21	7.70077
45	6461	4.31	7.87139
45	6611	4.41	8.0424
45	6761	4.51	8.21371
45	6911	4.61	8.38528
45	7061	4.71	8.55705
45	7211	4.81	8.729
45	7361	4.91	8.90109
45	7515	5.01	9.07329
45	7665	5.11	9.24559
45	7815	5.21	9.41797
45	7965	5.31	9.5904
45	8115	5.41	9.7629
45	8265	5.51	9.93543
45	8415	5.61	10.108
45	8565	5.71	10.2806
45	8715	5.81	10.4532
45	8865	5.91	10.6257
45	9019	6.01	10.7965
45	9169	6.11	10.9632
45	9319	6.21	11.1239
45	9469	6.31	11.2773
45	9619	6.41	11.4224
45	9769	6.51	11.5584
45	9919	6.61	11.6849
45	10069	6.71	11.8019
45	10219	6.81	11.9092
45	10369	6.91	12.0071
45	10523	7.01	12.0961
45	10673	7.11	12.1764
45	10823	7.21	12.2486
45	10973	7.31	12.3133
45	11123	7.41	12.371
45	11273	7.51	12.4225
45	11423	7.61	12.4682
45	11573	7.71	12.5089
45	11723	7.81	12.5451
45	11873	7.91	12.5774
45	12027	8.01	12.6062
45	12177	8.11	12.6322
45	12327	8.21	12.6557
45	12477	8.31	12.6773
45	12627	8.41	12.6972
45	12777	8.51	12.7158
45	12927	8.61	12.7335
45	13077	8.71	12.7504
45	13227	8.81	12.7669
45	13377	8.91	12.783
45	13531	9.01	12.7991
45	13681	9.11	12.8152
45	13831	9.21	12.8314
45	13981	9.31	12.8479
45	14131	9.41	12.8646
45	14281	9.51	12.8818
45	14431	9.61	12.8993
45	14581	9.71	12.9172
45	14731	9.81	12.9355
45	14881	9.91	12.9543
45	15035	10.01	12.9735
45	15185	10.11	12.9931
45	15335	10.21	13.0132
45	15485	10.31	13.0335
45	15635	10.41	13.0543
45	15785	10.51	13.0753
45	15935	10.61	13.0966
45	16085	10.71	13.1182
45	16235	10.81	13.1401
45	16385	10.91	13.1621
45	16539	11.01	13.1844
45	16689	11.11	13.2068
45	16839	11.21	13.2293
45	16989	11.31	13.2519
45	17140	11.41	0
45	17290	11.51	0
45	17440	11.61	0
45	17590	11.71	0
45	17740	11.81	0
45	17891	11.91	0
45	18045	12.01	0
45	18195	12.11	0
45	18345	12.21	0
45	18495	12.31	0
45	18645	12.41	0
45	18795	12.51	0
45	18945	12.61	0
45	19095	12.71	0
45	19245	12.81	0
45	19395	12.91	0
45	19549	13.01	0
45	19699	13.11	0
45	19849	13.21	0
45	19999	13.31	0
45	20149	13.41	0
45	20299	13.51	0
45	20449	13.61	0
45	20599	13.71	0
45	20749	13.81	0
45	20899	13.91	0
45	21053	14.01	0
45	21203	14.11	0
45	21353	14.21	0
45	21503	14.31	0
45	21653	14.41	0
45	21803	14.51	0
45	21953	14.61	0
45	22103	14.71	0
45	22253	14.81	0
45	22403	14.91	0
45	22557	15.01	0
45	22707	15.11	0
45	22857	15.21	0
45	23007	15.31	0
45	23157	15.41	0
45	23307	15.51	0
45	23457	15.61	0
45	23607	15.71	0
45	23757	15.81	0
45	23907	15.91	0
45	24061	16.01	0
45	24211	16.11	0
45	24361	16.21	0
45	24511	16.31	0
45	24661	16.41	0
45	24811	16.51	0
45	24961	16.61	0
45	25111	16.71	0
45	25261	16.81	0
45	25411	16.91	0
45	25565	17.01	0
45	25715	17.11	0
45	25865	17.21	0
45	26015	17.31	0
45	26165	17.41	0
45	26315	17.51	0
45	26465	17.61	0
45	26615	17.71	0
45	26765	17.81	0
45	26915	17.91	0
45	27069	18.01	0
45	27219	18.11	0
45	27369	18.21	0
45	27519	18.31	0
45	27669	18.41	0
45	27819	18.51	0
45	27969	18.61	0
45	28119	18.71	0
45	28269	18.81	0
45	28419	18.91	0
45	28573	19.01	0
45	28723	19.11	0
45	28873	19.21	0
45	29023	19.31	0
45	29173	19.41	0
45	29323	19.51	0
45	29473	19.61	0
45	29623	19.71	0
45	29773	19.81	0
45	29923	19.91	0
45	30077	20.01	0
45	30227	20.11	0
45	30377	20.21	0
45	30527	20.31	0
45	30677	20.41	0
45	30827	20.51	0
45	30977	20.61	0
45	31127	20.71	0
45	31277	20.81	0
45	31427	20.91	0
45	31581	21.01	0
45	31731	21.11	0
45	31881	21.21	0
45	32031	21.31	0
45	32181	21.41	0
45	32331	21.51	0
45	32481	21.61	0
45	32631	21.71	0
45	32781	21.81	0
45	32931	21.91	0
45	33085	22.01	0
45	33235	22.11	0
45	33385	22.21	0
45	33535	22.31	0
45	33685	22.41	0
45	33835	22.51	0
45	33985	22.61	0
45	34135	22.71	0
45	34285	22.81	0
45	34435	22.91	0
45	34589	23.01	0
45	34739	23.11	0
45	34889	23.21	0
45	35039	23.31	0
45	35189	23.41	0
45	35339	23.51	0
45	35489	23.61	0
45	35639	23.71	0
45	35789	23.81	0
45	35939	23.91	0
45	36093	24.01	0
45	36243	24.11	0
45	36393	24.21	0
45	36543	24.31	0
45	36693	24.41	0
45	36843	24.51	0
45	36993	24.61	0
45	37143	24.71	0
45	37293	24.81	0
45	37443	24.91	0
45	37597	25.01	0
45	37747	25.11	0
45	37897	25.21	0
45	38047	25.31	0
45	38197	25.41	0
45	38347	25.51	0
45	38497	25.61	0
45	38647	25.71	0
45	38797	25.81	0
45	38947	25.91	0
45	39101	26.01	0
45	39251	26.11	0
45	39401	26.21	0
45	39551	26.31	0
45	39701	26.41	0
45	39851	26.51	0
45	40001	26.61	0
45	40151	26.71	0
45	40301	26.81	0
45	40451	26.91	0
45	40605	27.01	0
45	40755	27.11	0
45	40905	27.21	0
45	41055	27.31	0
45	41205	27.41	0
45	41355	27.51	0
45	41505	27.61	0
45	41655	27.71	0
45	41805	27.81	0
45	41955	27.91	0
45	42109	28.01	0
45	42259	28.11	0
45	42409	28.21	0
45	42559	28.31	0
45	42709	28.41	0
45	42859	28.51	0
45	43009	28.61	0
45	43159	28.71	0
45	43309	28.81	0
45	43459	28.91	0
45	43613	29.01	0
45	43763	29.11	0
45	43913	29.21	0
45	44063	29.31	0
45	44213	29.41	0
45	44363	29.51	0
45	44513	29.61	0
45	44663	29.71	0
45	44813	29.81	0
45	44963	29.91	0
45	45117	30.01	0
45	45267	30.11	0
45	45417	30.21	0
45	45567	30.31	0
45	45717	30.41	0
45	45867	30.51	0
45	46017	30.61	0
45	46167	30.71	0
45	46317	30.81	0
45	46467	30.91	0
45	46621	31.01	0
45	46771	31.11	0
45	46921	31.21	0
45	47071	31.31	0
45	47221	31.41	0
45	47371	31.51	0
45	47521	31.61	0
45	47671	31.71	0
45	47821	31.81	0
45	47971	31.91	0
45	48125	32.01	0
45	48275	32.11	0
45	48425	32.21	0
45	48575	32.31	0
45	48725	32.41	0
45	48875	32.51	0
45	49025	32.61	0
44	26	0.21	-1
44	176	0.31	-1
44	326	0.41	-1
44	476	0.51	-1
44	626	0.61	-1
44	776	0.71	-1
44	926	0.81	-1
44	1076	0.91	-1
44	1230	1.01	-1
44	1381	1.11	-1
44	1532	1.21	-1
44	1683	1.31	-1
44	2099	1.41	427.509
44	2249	1.51	423.61
44	2399	1.61	419.743
44	2549	1.71	415.901
44	2699	1.81	412.077
44	2849	1.91	408.265
44	3003	2.01	404.462
44	3153	2.11	400.662
44	3303	2.21	396.864
44	3453	2.31	393.064
44	3603	2.41	389.261
44	3753	2.51	385.453
44	3903	2.61	381.638
44	4053	2.71	377.816
44	4203	2.81	373.985
44	4353	2.91	370.145
44	4507	3.01	366.295
44	4657	3.11	362.435
44	4807	3.21	358.564
44	4957	3.31	354.682
44	5107	3.41	350.788
44	5257	3.51	346.883
44	5407	3.61	342.966
44	5557	3.71	339.037
44	5707	3.81	335.095
44	5857	3.91	331.142
44	6011	4.01	327.176
44	6161	4.11	323.198
44	6311	4.21	319.207
44	6461	4.31	315.204
44	6611	4.41	311.188
44	6761	4.51	307.159
44	6911	4.61	303.118
44	7061	4.71	299.065
44	7211	4.81	294.998
44	7361	4.91	290.919
44	7515	5.01	286.828
44	7665	5.11	282.723
44	7815	5.21	278.606
44	7965	5.31	274.477
44	8115	5.41	270.334
44	8265	5.51	266.179
44	8415	5.61	262.011
44	8565	5.71	257.831
44	8715	5.81	253.638
44	8865	5.91	249.432
44	9019	6.01	245.213
44	9169	6.11	240.982
44	9319	6.21	236.739
44	9469	6.31	232.485
44	9619	6.41	228.221
44	9769	6.51	223.947
44	9919	6.61	219.665
44	10069	6.71	215.375
44	10219	6.81	211.078
44	10369	6.91	206.776
44	10523	7.01	202.468
44	10673	7.11	198.157
44	10823	7.21	193.843
44	10973	7.31	189.527
44	11123	7.41	185.208
44	11273	7.51	180.889
44	11423	7.61	176.57
44	11573	7.71	172.251
44	11723	7.81	167.933
44	11873	7.91	163.615
44	12027	8.01	159.3
44	12177	8.11	154.986
44	12327	8.21	150.674
44	12477	8.31	146.364
44	12627	8.41	142.057
44	12777	8.51	137.753
44	12927	8.61	133.451
44	13077	8.71	129.152
44	13227	8.81	124.856
44	13377	8.91	120.563
44	13531	9.01	116.273
44	13681	9.11	111.986
44	13831	9.21	107.701
44	13981	9.31	103.42
44	14131	9.41	99.1413
44	14281	9.51	94.8656
44	14431	9.61	90.5928
44	14581	9.71	86.3227
44	14731	9.81	82.0553
44	14881	9.91	77.7907
44	15035	10.01	73.5287
44	15185	10.11	69.2693
44	15335	10.21	65.0124
44	15485	10.31	60.7581
44	15635	10.41	56.5063
44	15785	10.51	52.2569
44	15935	10.61	48.01
44	16085	10.71	43.7655
44	16235	10.81	39.5233
44	16385	10.91	35.2835
44	16539	11.01	31.046
44	16689	11.11	26.8108
44	16839	11.21	22.578
44	16989	11.31	18.3474
44	17140	11.41	-1
44	17290	11.51	-1
44	17440	11.61	-1
44	17590	11.71	-1
44	17740	11.81	-1
44	17891	11.91	-1
44	18045	12.01	-1
44	18195	12.11	-1
44	18345	12.21	-1
44	18495	12.31	-1
44	18645	12.41	-1
44	18795	12.51	-1
44	18945	12.61	-1
44	19095	12.71	-1
44	19245	12.81	-1
44	19395	12.91	-1
44	19549	13.01	-1
44	19699	13.11	-1
44	19849	13.21	-1
44	19999	13.31	-1
44	20149	13.41	-1
44	20299	13.51	-1
44	20449	13.61	-1
44	20599	13.71	-1
44	20749	13.81	-1
44	20899	13.91	-1
44	21053	14.01	-1
44	21203	14.11	-1
44	21353	14.21	-1
44	21503	14.31	-1
44	21653	14.41	-1
44	21803	14.51	-1
44	21953	14.61	-1
44	22103	14.71	-1
44	22253	14.81	-1
44	22403	14.91	-1
44	22557	15.01	-1
44	22707	15.11	-1
44	22857	15.21	-1
44	23007	15.31	-1
44	23157	15.41	-1
44	23307	15.51	-1
44	23457	15.61	-1
44	23607	15.71	-1
44	23757	15.81	-1
44	23907	15.91	-1
44	24061	16.01	-1
44	24211	16.11	-1
44	24361	16.21	-1
44	24511	16.31	-1
44	24661	16.41	-1
44	24811	16.51	-1
44	24961	16.61	-1
44	25111	16.71	-1
44	25261	16.81	-1
44	25411	16.91	-1
44	25565	17.01	-1
44	25715	17.11	-1
44	25865	17.21	-1
44	26015	17.31	-1
44	26165	17.41	-1
44	26315	17.51	-1
44	26465	17.61	-1
44	26615	17.71	-1
44	26765	17.81	-1
44	26915	17.91	-1
44	27069	18.01	-1
44	27219	18.11	-1
44	27369	18.21	-1
44	27519	18.31	-1
44	27669	18.41	-1
44	27819	18.51	-1
44	27969	18.61	-1
44	28119	18.71	-1
44	28269	18.81	-1
44	28419	18.91	-1
44	28573	19.01	-1
44	28723	19.11	-1
44	28873	19.21	-1
44	29023	19.31	-1
44	29173	19.41	-1
44	29323	19.51	-1
44	29473	19.61	-1
44	29623	19.71	-1
44	29773	19.81	-1
44	29923	19.91	-1
44	30077	20.01	-1
44	30227	20.11	-1
44	30377	20.21	-1
44	30527	20.31	-1
44	30677	20.41	-1
44	30827	20.51	-1
44	30977	20.61	-1
44	31127	20.71	-1
44	31277	20.81	-1
44	31427	20.91	-1
44	31581	21.01	-1
44	31731	21.11	-1
44	31881	21.21	-1
44	32031	21.31	-1
44	32181	21.41	-1
44	32331	21.51	-1
44	32481	21.61	-1
44	32631	21.71	-1
44	32781	21.81	-1
44	32931	21.91	-1
44	33085	22.01	-1
44	33235	22.11	-1
44	33385	22.21	-1
44	33535	22.31	-1
44	33685	22.41	-1
44	33835	22.51	-1
44	33985	22.61	-1
44	34135	22.71	-1
44	34285	22.81	-1
44	34435	22.91	-1
44	34589	23.01	-1
44	34739	23.11	-1
44	34889	23.21	-1
44	35039	23.31	-1
44	35189	23.41	-1
44	35339	23.51	-1
44	35489	23.61	-1
44	35639	23.71	-1
44	35789	23.81	-1
44	35939	23.91	-1
44	36093	24.01	-1
44	36243	24.11	-1
44	36393	24.21	-1
44	36543	24.31	-1
44	36693	24.41	-1
44	36843	24.51	-1
44	36993	24.61	-1
44	37143	24.71	-1
44	37293	24.81	-1
44	37443	24.91	-1
44	37597	25.01	-1
44	37747	25.11	-1
44	37897	25.21	-1
44	38047	25.31	-1
44	38197	25.41	-1
44	38347	25.51	-1
44	38497	25.61	-1
44	38647	25.71	-1
44	38797	25.81	-1
44	38947	25.91	-1
44	39101	26.01	-1
44	39251	26.11	-1
44	39401	26.21	-1
44	39551	26.31	-1
44	39701	26.41	-1
44	39851	26.51	-1
44	40001	26.61	-1
44	40151	26.71	-1
44	40301	26.81	-1
44	40451	26.91	-1
44	40605	27.01	-1
44	40755	27.11	-1
44	40905	27.21	-1
44	41055	27.31	-1
44	41205	27.41	-1
44	41355	27.51	-1
44	41505	27.61	-1
44	41655	27.71	-1
44	41805	27.81	-1
44	41955	27.91	-1
44	42109	28.01	-1
44	42259	28.11	-1
44	42409	28.21	-1
44	42559	28.31	-1
44	42709	28.41	-1
44	42859	28.51	-1
44	43009	28.61	-1
44	43159	28.71	-1
44	43309	28.81	-1
44	43459	28.91	-1
44	43613	29.01	-1
44	43763	29.11	-1
44	43913	29.21	-1
44	44063	29.31	-1
44	44213	29.41	-1
44	44363	29.51	-1
44	44513	29.61	-1
44	44663	29.71	-1
44	44813	29.81	-1
44	44963	29.91	-1
44	45117	30.01	-1
44	45267	30.11	-1
44	45417	30.21	-1
44	45567	30.31	-1
44	45717	30.41	-1
44	45867	30.51	-1
44	46017	30.61	-1
44	46167	30.71	-1
44	46317	30.81	-1
44	46467	30.91	-1
44	46621	31.01	-1
44	46771	31.11	-1
44	46921	31.21	-1
44	47071	31.31	-1
44	47221	31.41	-1
44	47371	31.51	-1
44	47521	31.61	-1
44	47671	31.71	-1
44	47821	31.81	-1
44	47971	31.91	-1
44	48125	32.01	-1
44	48275	32.11	-1
44	48425	32.21	-1
44	48575	32.31	-1
44	48725	32.41	-1
44	48875	32.51	-1
44	49025	32.61	-1
46	26	0.21	3
46	176	0.31	3
46	326	0.41	3
46	476	0.51	3
46	626	0.61	3
46	776	0.71	3
46	926	0.81	3
46	1076	0.91	3
46	1230	1.01	3
46	1381	1.11	3
46	1532	1.21	3
46	1683	1.31	3
46	2099	1.41	3
46	2249	1.51	3
46	2399	1.61	3
46	2549	1.71	3
46	2699	1.81	3
46	2849	1.91	3
46	3003	2.01	3
46	3153	2.11	3
46	3303	2.21	3
46	3453	2.31	3
46	3603	2.41	3
46	3753	2.51	3
46	3903	2.61	3
46	4053	2.71	3
46	4203	2.81	3
46	4353	2.91	3
46	4507	3.01	3
46	4657	3.11	3
46	4807	3.21	3
46	4957	3.31	3
46	5107	3.41	3
46	5257	3.51	3
46	5407	3.61	3
46	5557	3.71	3
46	5707	3.81	3
46	5857	3.91	3
46	6011	4.01	3
46	6161	4.11	3
46	6311	4.21	3
46	6461	4.31	3
46	6611	4.41	3
46	6761	4.51	3
46	6911	4.61	3
46	7061	4.71	3
46	7211	4.81	3
46	7361	4.91	3
46	7515	5.01	3
46	7665	5.11	3
46	7815	5.21	3
46	7965	5.31	3
46	8115	5.41	3
46	8265	5.51	3
46	8415	5.61	3
46	8565	5.71	3
46	8715	5.81	3
46	8865	5.91	3
46	9019	6.01	3
46	9169	6.11	3
46	9319	6.21	3
46	9469	6.31	3
46	9619	6.41	3
46	9769	6.51	3
46	9919	6.61	3
46	10069	6.71	3
46	10219	6.81	3
46	10369	6.91	3
46	10523	7.01	3
46	10673	7.11	3
46	10823	7.21	3
46	10973	7.31	3
46	11123	7.41	3
46	11273	7.51	3
46	11423	7.61	3
46	11573	7.71	3
46	11723	7.81	3
46	11873	7.91	3
46	12027	8.01	3
46	12177	8.11	3
46	12327	8.21	3
46	12477	8.31	3
46	12627	8.41	3
46	12777	8.51	3
46	12927	8.61	3
46	13077	8.71	3
46	13227	8.81	3
46	13377	8.91	3
46	13531	9.01	3
46	13681	9.11	3
46	13831	9.21	3
46	13981	9.31	3
46	14131	9.41	3
46	14281	9.51	3
46	14431	9.61	3
46	14581	9.71	3
46	14731	9.81	3
46	14881	9.91	3
46	15035	10.01	3
46	15185	10.11	3
46	15335	10.21	3
46	15485	10.31	3
46	15635	10.41	3
46	15785	10.51	3
46	15935	10.61	3
46	16085	10.71	3
46	16235	10.81	3
46	16385	10.91	3
46	16539	11.01	3
46	16689	11.11	3
46	16839	11.21	3
46	16989	11.31	3
46	17140	11.41	3
46	17290	11.51	3
46	17440	11.61	3
46	17590	11.71	3
46	17740	11.81	3
46	17891	11.91	3
46	18045	12.01	3
46	18195	12.11	3
46	18345	12.21	3
46	18495	12.31	3
46	18645	12.41	3
46	18795	12.51	3
46	18945	12.61	3
46	19095	12.71	3
46	19245	12.81	3
46	19395	12.91	3
46	19549	13.01	3
46	19699	13.11	3
46	19849	13.21	3
46	19999	13.31	3
46	20149	13.41	3
46	20299	13.51	3
46	20449	13.61	3
46	20599	13.71	3
46	20749	13.81	3
46	20899	13.91	3
46	21053	14.01	3
46	21203	14.11	3
46	21353	14.21	3
46	21503	14.31	3
46	21653	14.41	3
46	21803	14.51	3
46	21953	14.61	3
46	22103	14.71	3
46	22253	14.81	3
46	22403	14.91	3
46	22557	15.01	3
46	22707	15.11	3
46	22857	15.21	3
46	23007	15.31	3
46	23157	15.41	3
46	23307	15.51	3
46	23457	15.61	3
46	23607	15.71	3
46	23757	15.81	3
46	23907	15.91	3
46	24061	16.01	3
46	24211	16.11	3
46	24361	16.21	3
46	24511	16.31	3
46	24661	16.41	3
46	24811	16.51	3
46	24961	16.61	3
46	25111	16.71	3
46	25261	16.81	3
46	25411	16.91	3
46	25565	17.01	3
46	25715	17.11	3
46	25865	17.21	3
46	26015	17.31	3
46	26165	17.41	3
46	26315	17.51	3
46	26465	17.61	3
46	26615	17.71	3
46	26765	17.81	3
46	26915	17.91	3
46	27069	18.01	3
46	27219	18.11	3
46	27369	18.21	3
46	27519	18.31	3
46	27669	18.41	3
46	27819	18.51	3
46	27969	18.61	3
46	28119	18.71	3
46	28269	18.81	3
46	28419	18.91	3
46	28573	19.01	3
46	28723	19.11	3
46	28873	19.21	3
46	29023	19.31	3
46	29173	19.41	3
46	29323	19.51	3
46	29473	19.61	3
46	29623	19.71	3
46	29773	19.81	3
46	29923	19.91	3
46	30077	20.01	3
46	30227	20.11	3
46	30377	20.21	3
46	30527	20.31	3
46	30677	20.41	3
46	30827	20.51	3
46	30977	20.61	3
46	31127	20.71	3
46	31277	20.81	3
46	31427	20.91	3
46	31581	21.01	3
46	31731	21.11	3
46	31881	21.21	3
46	32031	21.31	3
46	32181	21.41	3
46	32331	21.51	3
46	32481	21.61	3
46	32631	21.71	3
46	32781	21.81	3
46	32931	21.91	3
46	33085	22.01	3
46	33235	22.11	3
46	33385	22.21	3
46	33535	22.31	3
46	33685	22.41	3
46	33835	22.51	3
46	33985	22.61	3
46	34135	22.71	3
46	34285	22.81	3
46	34435	22.91	3
46	34589	23.01	3
46	34739	23.11	3
46	34889	23.21	3
46	35039	23.31	3
46	35189	23.41	3
46	35339	23.51	3
46	35489	23.61	3
46	35639	23.71	3
46	35789	23.81	3
46	35939	23.91	3
46	36093	24.01	3
46	36243	24.11	3
46	36393	24.21	3
46	36543	24.31	3
46	36693	24.41	3
46	36843	24.51	3
46	36993	24.61	3
46	37143	24.71	3
46	37293	24.81	3
46	37443	24.91	3
46	37597	25.01	3
46	37747	25.11	3
46	37897	25.21	3
46	38047	25.31	3
46	38197	25.41	3
46	38347	25.51	3
46	38497	25.61	3
46	38647	25.71	3
46	38797	25.81	3
46	38947	25.91	3
46	39101	26.01	3
46	39251	26.11	3
46	39401	26.21	3
46	39551	26.31	3
46	39701	26.41	3
46	39851	26.51	3
46	40001	26.61	3
46	40151	26.71	3
46	40301	26.81	3
46	40451	26.91	3
46	40605	27.01	3
46	40755	27.11	3
46	40905	27.21	3
46	41055	27.31	3
46	41205	27.41	3
46	41355	27.51	3
46	41505	27.61	3
46	41655	27.71	3
46	41805	27.81	3
46	41955	27.91	3
46	42109	28.01	3
46	42259	28.11	3
46	42409	28.21	3
46	42559	28.31	3
46	42709	28.41	3
46	42859	28.51	3
46	43009	28.61	3
46	43159	28.71	3
46	43309	28.81	3
46	43459	28.91	3
46	43613	29.01	3
46	43763	29.11	3
46	43913	29.21	3
46	44063	29.31	3
46	44213	29.41	3
46	44363	29.51	3
46	44513	29.61	3
46	44663	29.71	3
46	44813	29.81	3
46	44963	29.91	3
46	45117	30.01	3
46	45267	30.11	3
46	45417	30.21	3
46	45567	30.31	3
46	45717	30.41	3
46	45867	30.51	3
46	46017	30.61	3
46	46167	30.71	3
46	46317	30.81	3
46	46467	30.91	3
46	46621	31.01	3
46	46771	31.11	3
46	46921	31.21	3
46	47071	31.31	3
46	47221	31.41	3
46	47371	31.51	3
46	47521	31.61	3
46	47671	31.71	3
46	47821	31.81	3
46	47971	31.91	3
46	48125	32.01	3
46	48275	32.11	3
46	48425	32.21	3
46	48575	32.31	3
46	48725	32.41	3
46	48875	32.51	3
46	49025	32.61	3
67	1191	1	0
67	2964	2	0
67	4468	3	0
67	5972	4	0
67	7476	5	0
67	8980	6	0
67	10484	7	0
67	11988	8	0
67	13492	9	0
67	14996	10	0
67	16500	11	0
67	18006	12	0
67	19510	13	0
67	21014	14	0
67	22518	15	0
67	24022	16	0
67	25526	17	0
67	27030	18	0
67	28534	19	0
67	30038	20	0
67	31542	21	0
67	33046	22	0
67	34550	23	0
67	36054	24	0
67	37558	25	0
67	39062	26	0
67	40566	27	0
67	42070	28	0
67	43574	29	0
67	45078	30	0
67	46582	31	0
67	48086	32	0
66	1191	1	0.009679
66	2964	2	0.01314984908
66	4468	3	0.01249
66	5972	4	0.01249
66	7476	5	0.01249
66	8980	6	0.01249
66	10484	7	0.01249
66	11988	8	0.01249
66	13492	9	0.01249
66	14996	10	0.01249
66	16500	11	0.01249
66	18006	12	0.01249
66	19510	13	0.01249
66	21014	14	0.01249
66	22518	15	0.01249
66	24022	16	0.01249
66	25526	17	0.01249
66	27030	18	0.01249
66	28534	19	0.01249
66	30038	20	0.01249
66	31542	21	0.01249
66	33046	22	0.01249
66	34550	23	0.01249
66	36054	24	0.01249
66	37558	25	0.01249
66	39062	26	0.01249
66	40566	27	0.01249
66	42070	28	0.01249
66	43574	29	0.01249
66	45078	30	0.01249
66	46582	31	0.01249
66	48086	32	0.01249
65	1191	1	3
65	2964	2	3
65	4468	3	3
65	5972	4	3
65	7476	5	3
65	8980	6	3
65	10484	7	3
65	11988	8	3
65	13492	9	3
65	14996	10	3
65	16500	11	3
65	18006	12	3
65	19510	13	3
65	21014	14	3
65	22518	15	3
65	24022	16	3
65	25526	17	3
65	27030	18	3
65	28534	19	3
65	30038	20	3
65	31542	21	3
65	33046	22	3
65	34550	23	3
65	36054	24	3
65	37558	25	3
65	39062	26	3
65	40566	27	3
65	42070	28	3
65	43574	29	3
65	45078	30	3
65	46582	31	3
65	48086	32	3
19	15	0.13	2.3415824580764
19	16	0.14	2.3413325111462
19	17	0.15	2.3410875341734
19	18	0.16	2.3408474777691
19	19	0.17	2.3406122925465
19	20	0.18	2.3403819291286
19	21	0.19	2.3401563381622
19	22	0.2	2.3399354703239
19	27	0.21	2.3397192763299
19	62	0.22	2.3395077069463
19	97	0.23	2.339300712995
19	98	0.24	2.3390982453662
19	99	0.25	2.3389002550231
19	134	0.26	2.338706693012
19	135	0.27	2.3385175104692
19	136	0.28	2.3383326586314
19	137	0.29	2.3381520888386
19	138	0.3	2.3379757525455
19	177	0.31	2.3378036013286
19	212	0.32	2.3376355868924
19	247	0.33	2.3374716610749
19	248	0.34	2.3373117758576
19	249	0.35	2.3371558833716
19	284	0.36	2.3370039358989
19	285	0.37	2.3368558858868
19	286	0.38	2.3367116859497
19	287	0.39	2.3365712888729
19	288	0.4	2.3364346476247
19	327	0.41	2.3363017153561
19	362	0.42	2.3361724454098
19	397	0.43	2.3360467913255
19	398	0.44	2.3359247068422
19	399	0.45	2.3358061459074
19	434	0.46	2.3356910626793
19	435	0.47	2.3355794115339
19	436	0.48	2.3354711470676
19	437	0.49	2.335366224102
19	438	0.5	2.3352645976896
19	477	0.51	2.335166223118
19	512	0.52	2.3350710559118
19	547	0.53	2.3349790518394
19	548	0.54	2.3348901669176
19	549	0.55	2.3348043574105
19	584	0.56	2.3347215798391
19	585	0.57	2.3346417909805
19	586	0.58	2.3345649478747
19	587	0.59	2.3344910078236
19	588	0.6	2.3344199283994
19	627	0.61	2.3343516674436
19	662	0.62	2.3342861830726
19	697	0.63	2.3342234336791
19	698	0.64	2.3341633779354
19	699	0.65	2.3341059747932
19	734	0.66	2.3340511834927
19	735	0.67	2.3339989635591
19	736	0.68	2.3339492748065
19	737	0.69	2.3339020773414
19	738	0.7	2.3338573315636
19	777	0.71	2.3338149981683
19	812	0.72	2.3337750381486
19	847	0.73	2.3337374127978
19	848	0.74	2.333702083708
19	849	0.75	2.3336690127765
19	884	0.76	2.333638162204
19	885	0.77	2.3336094944964
19	886	0.78	2.3335829724675
19	887	0.79	2.3335585592379
19	888	0.8	2.3335362182406
19	927	0.81	2.3335159132172
19	962	0.82	2.3334976082219
19	997	0.83	2.3334812676204
19	998	0.84	2.3334668560927
19	999	0.85	2.3334543386333
19	1034	0.86	2.3334436805528
19	1035	0.87	2.3334348474751
19	1036	0.88	2.3334278053403
19	1037	0.89	2.3334225204076
19	1038	0.9	2.3334189592527
19	1077	0.91	2.3334170887666
19	1112	0.92	2.3334168761596
19	1147	0.93	2.3334182889603
19	1148	0.94	2.333421295014
19	1149	0.95	2.3334258624846
19	1184	0.96	2.3334319598558
19	1185	0.97	2.3334395559271
19	1186	0.98	2.3334486198167
19	1187	0.99	2.3334591209616
19	1192	1	2.3334710291148
19	1231	1.01	2.3334843143469
19	1266	1.02	2.3334989470462
19	1301	1.03	2.3335148979161
19	1302	1.04	2.3335321379775
19	1303	1.05	2.3335506385667
19	1338	1.06	2.3335703713352
19	1339	1.07	2.333591308247
19	1340	1.08	2.3336134215814
19	1341	1.09	2.333636683929
19	1342	1.1	2.333661068196
19	1382	1.11	2.3336865475959
19	1417	1.12	2.3337130956549
19	1452	1.13	2.3337406862098
19	1453	1.14	2.3337692934043
19	1454	1.15	2.3337988916902
19	1489	1.16	2.3338294558266
19	1490	1.17	2.3338609608776
19	1491	1.18	2.3338933822121
19	1492	1.19	2.333926695503
19	1493	1.2	2.3339608767237
19	1533	1.21	2.3339959021517
19	1568	1.22	2.3340317483596
19	1603	1.23	2.334068392223
19	1604	1.24	2.3341058109125
19	1605	1.25	2.3341439818947
19	1640	1.26	2.3341828829305
19	1641	1.27	2.3342224920736
19	1642	1.28	2.3342627876708
19	1643	1.29	2.3343037483564
19	1644	1.3	2.3343453530549
19	1684	1.31	2.3343875809786
19	1931	1.32	2.3344304116246
19	1966	1.33	2.334473824772
19	1967	1.34	2.3345178004849
19	1968	1.35	2.3345623191084
19	2004	1.36	2.3346073612639
19	2058	1.37	2.3168379106605
19	2059	1.38	2.2994115412167
19	2060	1.39	2.2823216570362
19	2061	1.4	2.2655617856162
19	2100	1.41	2.2491255756803
19	2135	1.42	2.2330067950335
19	2170	1.43	2.2171993284626
19	2171	1.44	2.2016971756539
19	2172	1.45	2.1864944491555
19	2207	1.46	2.1715853723666
19	2208	1.47	2.1569642775523
19	2209	1.48	2.1426256038988
19	2210	1.49	2.128563895595
19	2211	1.5	2.1147737999442
19	2250	1.51	2.1012500655046
19	2285	1.52	2.087987540263
19	2320	1.53	2.0749811698378
19	2321	1.54	2.062225995706
19	2322	1.55	2.0497171534672
19	2357	1.56	2.0374498711257
19	2358	1.57	2.0254194674109
19	2359	1.58	2.0136213501209
19	2360	1.59	2.0020510144914
19	2361	1.6	1.9907040415963
19	2400	1.61	1.9795760967733
19	2435	1.62	1.9686629280723
19	2470	1.63	1.9579603647362
19	2471	1.64	1.9474643157052
19	2472	1.65	1.9371707681411
19	2507	1.66	1.9270757859876
19	2508	1.67	1.9171755085441
19	2509	1.68	1.9074661490698
19	2510	1.69	1.8979439934145
19	2511	1.7	1.8886053986645
19	2550	1.71	1.8794467918183
19	2585	1.72	1.8704646684887
19	2620	1.73	1.8616555916142
19	2621	1.74	1.85301619021
19	2622	1.75	1.8445431581274
19	2657	1.76	1.8362332528413
19	2658	1.77	1.8280832942578
19	2659	1.78	1.8200901635426
19	2660	1.79	1.8122508019707
19	2661	1.8	1.8045622097973
19	2700	1.81	1.7970214451468
19	2735	1.82	1.7896256229236
19	2770	1.83	1.7823719137369
19	2771	1.84	1.7752575428566
19	2772	1.85	1.7682797891746
19	2807	1.86	1.7614359841946
19	2808	1.87	1.754723511033
19	2809	1.88	1.7481398034448
19	2810	1.89	1.7416823448608
19	2811	1.9	1.7353486674466
19	2850	1.91	1.7291363511749
19	2885	1.92	1.7230430229201
19	2920	1.93	1.7170663555631
19	2921	1.94	1.7112040671187
19	2922	1.95	1.7054539198721
19	2957	1.96	1.6998137195393
19	2958	1.97	1.6942813144345
19	2959	1.98	1.6888545946594
19	2960	1.99	1.6835314913058
19	2965	2	1.6783099756674
19	3004	2.01	1.6731880584764
19	3039	2.02	1.6681637891451
19	3074	2.03	1.6632352550263
19	3075	2.04	1.658400580686
19	3076	2.05	1.6536579271918
19	3111	2.06	1.6490054914071
19	3112	2.07	1.644441505311
19	3113	2.08	1.6399642353179
19	3114	2.09	1.6355719816181
19	3115	2.1	1.63126307753
19	3154	2.11	1.6270358888583
19	3189	2.12	1.6228888132742
19	3224	2.13	1.6188202796952
19	3225	2.14	1.6148287476902
19	3226	2.15	1.6109127068829
19	3261	2.16	1.6070706763749
19	3262	2.17	1.6033012041755
19	3263	2.18	1.5996028666445
19	3264	2.19	1.5959742679456
19	3265	2.2	1.592414039506
19	3304	2.21	1.5889208394913
19	3339	2.22	1.585493352291
19	3374	2.23	1.5821302880055
19	3375	2.24	1.5788303819545
19	3376	2.25	1.5755923941828
19	3411	2.26	1.5724151089878
19	3412	2.27	1.5692973344431
19	3413	2.28	1.5662379019418
19	3414	2.29	1.5632356657439
19	3415	2.3	1.5602895025315
19	3454	2.31	1.5573983109739
19	3489	2.32	1.5545610113019
19	3524	2.33	1.5517765448867
19	3525	2.34	1.5490438738324
19	3526	2.35	1.5463619805717
19	3561	2.36	1.5437298674703
19	3562	2.37	1.5411465564389
19	3563	2.38	1.5386110885565
19	3564	2.39	1.5361225236925
19	3565	2.4	1.5336799401435
19	3604	2.41	1.5312824342761
19	3639	2.42	1.5289291201738
19	3674	2.43	1.5266191292917
19	3675	2.44	1.5243516101157
19	3676	2.45	1.5221257278363
19	3711	2.46	1.5199406640179
19	3712	2.47	1.5177956162824
19	3713	2.48	1.5156897979944
19	3714	2.49	1.5136224379552
19	3715	2.5	1.5115927801009
19	3754	2.51	1.5096000832077
19	3789	2.52	1.5076436206037
19	3824	2.53	1.5057226798798
19	3825	2.54	1.5038365626182
19	3826	2.55	1.5019845841118
19	3861	2.56	1.5001660731027
19	3862	2.57	1.4983803715151
19	3863	2.58	1.4966268341998
19	3864	2.59	1.4949048286809
19	3865	2.6	1.4932137349089
19	3904	2.61	1.4915529450158
19	3939	2.62	1.4899218630777
19	3974	2.63	1.4883199048816
19	3975	2.64	1.4867464976975
19	3976	2.65	1.4852010800511
19	4011	2.66	1.4836831015043
19	4012	2.67	1.4821920224403
19	4013	2.68	1.4807273138498
19	4014	2.69	1.479288457125
19	4015	2.7	1.4778749438567
19	4054	2.71	1.4764862756311
19	4089	2.72	1.475121963837
19	4124	2.73	1.4737815294722
19	4125	2.74	1.4724645029567
19	4126	2.75	1.4711704239459
19	4161	2.76	1.4698988411525
19	4162	2.77	1.4686493121651
19	4163	2.78	1.4674214032774
19	4164	2.79	1.4662146893167
19	4165	2.8	1.4650287534758
19	4204	2.81	1.4638631871488
19	4239	2.82	1.4627175897697
19	4274	2.83	1.4615915686586
19	4275	2.84	1.4604847388616
19	4276	2.85	1.4593967230023
19	4311	2.86	1.4583271511321
19	4312	2.87	1.457275660586
19	4313	2.88	1.4562418958366
19	4314	2.89	1.455225508356
19	4315	2.9	1.4542261564785
19	4354	2.91	1.453243505265
19	4389	2.92	1.4522772263714
19	4424	2.93	1.451326997919
19	4425	2.94	1.4503925043684
19	4426	2.95	1.4494734363911
19	4461	2.96	1.4485694907524
19	4462	2.97	1.4476803701899
19	4463	2.98	1.4468057832961
19	4464	2.99	1.4459454444004
19	4469	3	1.4450990734612
19	4508	3.01	1.4442663959538
19	4543	3.02	1.4434471427594
19	4578	3.03	1.4426410500633
19	4579	3.04	1.4418478592438
19	4580	3.05	1.4410673167786
19	4615	3.06	1.4402991741361
19	4616	3.07	1.439543187685
19	4617	3.08	1.4387991185931
19	4618	3.09	1.4380667327343
19	4619	3.1	1.4373458005945
19	4658	3.11	1.4366360971824
19	4693	3.12	1.4359374019432
19	4728	3.13	1.4352494986647
19	4729	3.14	1.4345721753981
19	4730	3.15	1.4339052243704
19	4765	3.16	1.4332484419044
19	4766	3.17	1.4326016283372
19	4767	3.18	1.431964587939
19	4768	3.19	1.4313371288411
19	4769	3.2	1.430719062955
19	4808	3.21	1.4301102058994
19	4843	3.22	1.4295103769284
19	4878	3.23	1.4289193988575
19	4879	3.24	1.4283370979977
19	4880	3.25	1.4277633040814
19	4915	3.26	1.4271978501992
19	4916	3.27	1.4266405727303
19	4917	3.28	1.4260913112821
19	4918	3.29	1.4255499086232
19	4919	3.3	1.4250162106234
19	4958	3.31	1.4244900661879
19	4993	3.32	1.4239713272048
19	5028	3.33	1.4234598484801
19	5029	3.34	1.422955487684
19	5030	3.35	1.4224581052923
19	5065	3.36	1.4219675645318
19	5066	3.37	1.4214837313277
19	5067	3.38	1.4210064742493
19	5068	3.39	1.4205356644554
19	5069	3.4	1.4200711756465
19	5108	3.41	1.4196128840153
19	5143	3.42	1.4191606681933
19	5178	3.43	1.4187144092087
19	5179	3.44	1.4182739904326
19	5180	3.45	1.4178392975403
19	5215	3.46	1.4174102184583
19	5216	3.47	1.4169866433247
19	5217	3.48	1.4165684644433
19	5218	3.49	1.4161555762449
19	5219	3.5	1.4157478752392
19	5258	3.51	1.4153452599801
19	5293	3.52	1.4149476310204
19	5328	3.53	1.4145548908745
19	5329	3.54	1.4141669439797
19	5330	3.55	1.4137836966597
19	5365	3.56	1.4134050570839
19	5366	3.57	1.4130309352353
19	5367	3.58	1.4126612428714
19	5368	3.59	1.4122958934889
19	5369	3.6	1.4119348022936
19	5408	3.61	1.4115778861621
19	5443	3.62	1.4112250636114
19	5478	3.63	1.4108762547665
19	5479	3.64	1.4105313813264
19	5480	3.65	1.4101903665363
19	5515	3.66	1.4098531351554
19	5516	3.67	1.4095196134266
19	5517	3.68	1.4091897290486
19	5518	3.69	1.408863411145
19	5519	3.7	1.4085405902396
19	5558	3.71	1.4082211982259
19	5593	3.72	1.4079051683404
19	5628	3.73	1.4075924351379
19	5629	3.74	1.407282934465
19	5630	3.75	1.4069766034311
19	5665	3.76	1.4066733803889
19	5666	3.77	1.4063732049072
19	5667	3.78	1.4060760177463
19	5668	3.79	1.405781760836
19	5669	3.8	1.4054903772521
19	5708	3.81	1.405201811191
19	5743	3.82	1.4049160079531
19	5778	3.83	1.4046329139163
19	5779	3.84	1.4043524765181
19	5780	3.85	1.4040746442315
19	5815	3.86	1.4037993665461
19	5816	3.87	1.4035265939497
19	5817	3.88	1.4032562779057
19	5818	3.89	1.4029883708362
19	5819	3.9	1.4027228261
19	5858	3.91	1.4024595979792
19	5893	3.92	1.4021986416558
19	5928	3.93	1.4019399131964
19	5929	3.94	1.4016833695352
19	5930	3.95	1.4014289684551
19	5965	3.96	1.4011766685739
19	5966	3.97	1.4009264293245
19	5967	3.98	1.4006782109401
19	5968	3.99	1.4004319744391
19	5973	4	1.4001876816095
19	6012	4.01	1.3999452949913
19	6047	4.02	1.3997047778658
19	6082	4.03	1.3994660942394
19	6083	4.04	1.3992292088258
19	6084	4.05	1.3989940870382
19	6119	4.06	1.3987606949698
19	6120	4.07	1.398528999384
19	6121	4.08	1.3982989677012
19	6122	4.09	1.3980705679822
19	6123	4.1	1.3978437689193
19	6162	4.11	1.3976185398224
19	6197	4.12	1.3973948506076
19	6232	4.13	1.397172671783
19	6233	4.14	1.3969519744414
19	6234	4.15	1.3967327302436
19	6269	4.16	1.3965149114097
19	6270	4.17	1.3962984907106
19	6271	4.18	1.3960834414511
19	6272	4.19	1.3958697374641
19	6273	4.2	1.3956573530995
19	6312	4.21	1.3954462632139
19	6347	4.22	1.395236443158
19	6382	4.23	1.3950278687697
19	6383	4.24	1.3948205163642
19	6384	4.25	1.3946143627235
19	6419	4.26	1.3944093850887
19	6420	4.27	1.3942055611481
19	6421	4.28	1.3940028690333
19	6422	4.29	1.3938012873048
19	6423	4.3	1.3936007949465
19	6462	4.31	1.393401371357
19	6497	4.32	1.3932029963429
19	6532	4.33	1.3930056501084
19	6533	4.34	1.3928093132472
19	6534	4.35	1.3926139667382
19	6569	4.36	1.3924195919326
19	6570	4.37	1.3922261705524
19	6571	4.38	1.3920336846796
19	6572	4.39	1.3918421167487
19	6573	4.4	1.3916514495409
19	6612	4.41	1.3914616661789
19	6647	4.42	1.3912727501154
19	6682	4.43	1.391084685133
19	6683	4.44	1.3908974553328
19	6684	4.45	1.3907110451292
19	6719	4.46	1.3905254392439
19	6720	4.47	1.3903406227001
19	6721	4.48	1.3901565808188
19	6722	4.49	1.3899732992082
19	6723	4.5	1.3897907637603
19	6762	4.51	1.3896089606473
19	6797	4.52	1.3894278763121
19	6832	4.53	1.389247497467
19	6833	4.54	1.3890678110861
19	6834	4.55	1.3888888043992
19	6869	4.56	1.3887104648892
19	6870	4.57	1.3885327802861
19	6871	4.58	1.3883557385607
19	6872	4.59	1.3881793279234
19	6873	4.6	1.3880035368145
19	6912	4.61	1.3878283539051
19	6947	4.62	1.3876537680866
19	6982	4.63	1.3874797684728
19	6983	4.64	1.3873063443903
19	6984	4.65	1.3871334853771
19	7019	4.66	1.3869611811772
19	7020	4.67	1.3867894217372
19	7021	4.68	1.3866181972027
19	7022	4.69	1.3864474979108
19	7023	4.7	1.3862773143932
19	7062	4.71	1.3861076373662
19	7097	4.72	1.3859384577292
19	7132	4.73	1.3857697665609
19	7133	4.74	1.3856015551174
19	7134	4.75	1.3854338148266
19	7169	4.76	1.3852665372844
19	7170	4.77	1.3850997142544
19	7171	4.78	1.3849333376609
19	7172	4.79	1.3847673995902
19	7173	4.8	1.3846018922809
19	7212	4.81	1.3844368081267
19	7247	4.82	1.3842721396717
19	7282	4.83	1.3841078796068
19	7283	4.84	1.3839440207666
19	7284	4.85	1.3837805561277
19	7319	4.86	1.3836174788045
19	7320	4.87	1.3834547820472
19	7321	4.88	1.3832924592396
19	7322	4.89	1.3831305038965
19	7323	4.9	1.382968909659
19	7362	4.91	1.3828076702951
19	7397	4.92	1.3826467796949
19	7432	4.93	1.38248623187
19	7433	4.94	1.3823260209488
19	7434	4.95	1.3821661411757
19	7469	4.96	1.3820065869094
19	7470	4.97	1.3818473526193
19	7471	4.98	1.3816884328836
19	7472	4.99	1.3815298223877
19	7477	5	1.3813715159225
19	7516	5.01	1.3812135083802
19	7551	5.02	1.381055794755
19	7586	5.03	1.3808983701391
19	7587	5.04	1.3807412297215
19	7588	5.05	1.3805843687869
19	7623	5.06	1.3804277827114
19	7624	5.07	1.3802714669633
19	7625	5.08	1.3801154170999
19	7626	5.09	1.3799596287663
19	7627	5.1	1.3798040976935
19	7666	5.11	1.3796488196965
19	7701	5.12	1.3794937906726
19	7736	5.13	1.3793390066007
19	7737	5.14	1.3791844635384
19	7738	5.15	1.3790301576202
19	7773	5.16	1.3788760850586
19	7774	5.17	1.3787222421391
19	7775	5.18	1.3785686252215
19	7776	5.19	1.3784152307367
19	7777	5.2	1.3782620551867
19	7816	5.21	1.3781090951414
19	7851	5.22	1.3779563472385
19	7886	5.23	1.377803808183
19	7887	5.24	1.3776514747434
19	7888	5.25	1.3774993437531
19	7923	5.26	1.3773474121069
19	7924	5.27	1.3771956767612
19	7925	5.28	1.3770441347328
19	7926	5.29	1.3768927830969
19	7927	5.3	1.3767416189855
19	7966	5.31	1.3765906395881
19	8001	5.32	1.37643984215
19	8036	5.33	1.3762892239695
19	8037	5.34	1.3761387823987
19	8038	5.35	1.375988514842
19	8073	5.36	1.3758384187548
19	8074	5.37	1.3756884916421
19	8075	5.38	1.375538731059
19	8076	5.39	1.3753891346076
19	8077	5.4	1.3752396999386
19	8116	5.41	1.3750904247476
19	8151	5.42	1.3749413067768
19	8186	5.43	1.3747923438119
19	8187	5.44	1.3746435336823
19	8188	5.45	1.3744948742609
19	8223	5.46	1.3743463634616
19	8224	5.47	1.3741979992391
19	8225	5.48	1.3740497795896
19	8226	5.49	1.3739017025481
19	8227	5.5	1.3737537661875
19	8266	5.51	1.3736059686203
19	8301	5.52	1.3734583079944
19	8336	5.53	1.3733107824954
19	8337	5.54	1.3731633903437
19	8338	5.55	1.3730161297957
19	8373	5.56	1.3728689991409
19	8374	5.57	1.3727219967033
19	8375	5.58	1.3725751208401
[...]
2	61076	55.23	931.55726268403
2	61077	55.24	931.69615168374
2	61078	55.25	931.83504068346
2	61097	55.26	931.97392968317
2	61098	55.27	932.11281868289
2	61099	55.28	932.2517076826
2	61100	55.29	932.39059668231
2	61101	55.3	932.52948568203
2	61104	55.31	932.66837468175
2	61105	55.32	932.80726368146
2	61124	55.33	932.94615268118
2	61125	55.34	933.0850416809
2	61126	55.35	933.22393068061
2	61145	55.36	933.36281968033
2	61146	55.37	933.50170868005
2	61147	55.38	933.64059767977
2	61148	55.39	933.77948667949
2	61149	55.4	933.91837567921
2	61152	55.41	934.05726467893
2	61153	55.42	934.19615367865
2	61172	55.43	934.33504267837
2	61173	55.44	934.47393167809
2	61174	55.45	934.61282067782
2	61193	55.46	934.75170967754
2	61194	55.47	934.89059867726
2	61195	55.48	935.02948767698
2	61196	55.49	935.16837667671
2	61197	55.5	935.30726567643
2	61200	55.51	935.44615467616
2	61201	55.52	935.58504367588
2	61220	55.53	935.72393267561
2	61221	55.54	935.86282167533
2	61222	55.55	936.00171067506
2	61241	55.56	936.14059967479
2	61242	55.57	936.27948867451
2	61243	55.58	936.41837767424
2	61244	55.59	936.55726667397
2	61245	55.6	936.6961556737
2	61248	55.61	936.83504467343
2	61249	55.62	936.97393367316
2	61268	55.63	937.11282267289
2	61269	55.64	937.25171167262
2	61270	55.65	937.39060067235
2	61289	55.66	937.52948967208
2	61290	55.67	937.66837867181
2	61291	55.68	937.80726767154
2	61292	55.69	937.94615667127
2	61293	55.7	938.08504567101
2	61296	55.71	938.22393467074
2	61297	55.72	938.36282367047
2	61316	55.73	938.50171267021
2	61317	55.74	938.64060166994
2	61318	55.75	938.77949066968
2	61337	55.76	938.91837966941
2	61338	55.77	939.05726866915
2	61339	55.78	939.19615766888
2	61340	55.79	939.33504666862
2	61341	55.8	939.47393566836
2	61344	55.81	939.61282466809
2	61345	55.82	939.75171366783
2	61364	55.83	939.89060266757
2	61365	55.84	940.02949166731
2	61366	55.85	940.16838066705
2	61385	55.86	940.30726966679
2	61386	55.87	940.44615866653
2	61387	55.88	940.58504766627
2	61388	55.89	940.72393666601
2	61389	55.9	940.86282566575
2	61392	55.91	941.00171466549
2	61393	55.92	941.14060366523
2	61412	55.93	941.27949266497
2	61413	55.94	941.41838166472
2	61414	55.95	941.55727066446
2	61433	55.96	941.6961596642
2	61434	55.97	941.83504866395
2	61435	55.98	941.97393766369
2	61436	55.99	942.11282666343
2	61439	56	942.25171566318
2	61442	56.01	942.39060466292
2	61443	56.02	942.52949366267
2	61462	56.03	942.66838266242
2	61463	56.04	942.80727166216
2	61464	56.05	942.94616066191
2	61483	56.06	943.08504966166
2	61484	56.07	943.2239386614
2	61485	56.08	943.36282766115
2	61486	56.09	943.5017166609
2	61487	56.1	943.64060566065
2	61490	56.11	943.7794946604
2	61491	56.12	943.91838366015
2	61510	56.13	944.0572726599
2	61511	56.14	944.19616165965
2	61512	56.15	944.3350506594
2	61531	56.16	944.47393965915
2	61532	56.17	944.6128286589
2	61533	56.18	944.75171765866
2	61534	56.19	944.89060665841
2	61535	56.2	945.02949565816
2	61538	56.21	945.16838465791
2	61539	56.22	945.30727365767
2	61558	56.23	945.44616265742
2	61559	56.24	945.58505165718
2	61560	56.25	945.72394065693
2	61579	56.26	945.86282965669
2	61580	56.27	946.00171865644
2	61581	56.28	946.1406076562
2	61582	56.29	946.27949665595
2	61583	56.3	946.41838565571
2	61586	56.31	946.55727465547
2	61587	56.32	946.69616365522
2	61606	56.33	946.83505265498
2	61607	56.34	946.97394165474
2	61608	56.35	947.1128306545
2	61627	56.36	947.25171965426
2	61628	56.37	947.39060865402
2	61629	56.38	947.52949765378
2	61630	56.39	947.66838665354
2	61631	56.4	947.8072756533
2	61634	56.41	947.94616465306
2	61635	56.42	948.08505365282
2	61654	56.43	948.22394265258
2	61655	56.44	948.36283165234
2	61656	56.45	948.5017206521
2	61675	56.46	948.64060965187
2	61676	56.47	948.77949865163
2	61677	56.48	948.91838765139
2	61678	56.49	949.05727665116
2	61679	56.5	949.19616565092
2	61682	56.51	949.33505465069
2	61683	56.52	949.47394365045
2	61702	56.53	949.61283265022
2	61703	56.54	949.75172164998
2	61704	56.55	949.89061064975
2	61723	56.56	950.02949964951
2	61724	56.57	950.16838864928
2	61725	56.58	950.30727764905
2	61726	56.59	950.44616664881
2	61727	56.6	950.58505564858
2	61730	56.61	950.72394464835
2	61731	56.62	950.86283364812
2	61750	56.63	951.00172264789
2	61751	56.64	951.14061164766
2	61752	56.65	951.27950064743
2	61771	56.66	951.4183896472
2	61772	56.67	951.55727864697
2	61773	56.68	951.69616764674
2	61774	56.69	951.83505664651
2	61775	56.7	951.97394564628
2	61778	56.71	952.11283464605
2	61779	56.72	952.25172364582
2	61798	56.73	952.3906126456
2	61799	56.74	952.52950164537
2	61800	56.75	952.66839064514
2	61819	56.76	952.80727964491
2	61820	56.77	952.94616864469
2	61821	56.78	953.08505764446
2	61822	56.79	953.22394664424
2	61823	56.8	953.36283564401
2	61826	56.81	953.50172464379
2	61827	56.82	953.64061364356
2	61846	56.83	953.77950264334
2	61847	56.84	953.91839164312
2	61848	56.85	954.05728064289
2	61867	56.86	954.19616964267
2	61868	56.87	954.33505864245
2	61869	56.88	954.47394764222
2	61870	56.89	954.612836642
2	61871	56.9	954.75172564178
2	61874	56.91	954.89061464156
2	61875	56.92	955.02950364134
2	61894	56.93	955.16839264112
2	61895	56.94	955.3072816409
2	61896	56.95	955.44617064068
2	61915	56.96	955.58505964046
2	61916	56.97	955.72394864024
2	61917	56.98	955.86283764002
2	61918	56.99	956.0017266398
2	61921	57	956.14061563958
2	61924	57.01	956.27950463937
2	61925	57.02	956.41839363915
2	61944	57.03	956.55728263893
2	61945	57.04	956.69617163871
2	61946	57.05	956.8350606385
2	61965	57.06	956.97394963828
2	61966	57.07	957.11283863806
2	61967	57.08	957.25172763785
2	61968	57.09	957.39061663763
2	61969	57.1	957.52950563742
2	61972	57.11	957.66839463721
2	61973	57.12	957.80728363699
2	61992	57.13	957.94617263678
2	61993	57.14	958.08506163656
2	61994	57.15	958.22395063635
2	62013	57.16	958.36283963614
2	62014	57.17	958.50172863593
2	62015	57.18	958.64061763571
2	62016	57.19	958.7795066355
2	62017	57.2	958.91839563529
2	62020	57.21	959.05728463508
2	62021	57.22	959.19617363487
2	62040	57.23	959.33506263466
2	62041	57.24	959.47395163445
2	62042	57.25	959.61284063424
2	62061	57.26	959.75172963403
2	62062	57.27	959.89061863382
2	62063	57.28	960.02950763361
2	62064	57.29	960.1683966334
2	62065	57.3	960.30728563319
2	62068	57.31	960.44617463299
2	62069	57.32	960.58506363278
2	62088	57.33	960.72395263257
2	62089	57.34	960.86284163236
2	62090	57.35	961.00173063216
2	62109	57.36	961.14061963195
2	62110	57.37	961.27950863174
2	62111	57.38	961.41839763154
2	62112	57.39	961.55728663133
2	62113	57.4	961.69617563113
2	62116	57.41	961.83506463092
2	62117	57.42	961.97395363072
2	62136	57.43	962.11284263052
2	62137	57.44	962.25173163031
2	62138	57.45	962.39062063011
2	62157	57.46	962.52950962991
2	62158	57.47	962.6683986297
2	62159	57.48	962.8072876295
2	62160	57.49	962.9461766293
2	62161	57.5	963.0850656291
2	62164	57.51	963.22395462889
2	62165	57.52	963.36284362869
2	62184	57.53	963.50173262849
2	62185	57.54	963.64062162829
2	62186	57.55	963.77951062809
2	62205	57.56	963.91839962789
2	62206	57.57	964.05728862769
2	62207	57.58	964.19617762749
2	62208	57.59	964.33506662729
2	62209	57.6	964.4739556271
2	62212	57.61	964.6128446269
2	62213	57.62	964.7517336267
2	62232	57.63	964.8906226265
2	62233	57.64	965.0295116263
2	62234	57.65	965.16840062611
2	62253	57.66	965.30728962591
2	62254	57.67	965.44617862571
2	62255	57.68	965.58506762552
2	62256	57.69	965.72395662532
2	62257	57.7	965.86284562513
2	62260	57.71	966.00173462493
2	62261	57.72	966.14062362474
2	62280	57.73	966.27951262454
2	62281	57.74	966.41840162435
2	62282	57.75	966.55729062415
2	62301	57.76	966.69617962396
2	62302	57.77	966.83506862377
2	62303	57.78	966.97395762357
2	62304	57.79	967.11284662338
2	62305	57.8	967.25173562319
2	62308	57.81	967.39062462299
2	62309	57.82	967.5295136228
2	62328	57.83	967.66840262261
2	62329	57.84	967.80729162242
2	62330	57.85	967.94618062223
2	62349	57.86	968.08506962204
2	62350	57.87	968.22395862185
2	62351	57.88	968.36284762166
2	62352	57.89	968.50173662147
2	62353	57.9	968.64062562128
2	62356	57.91	968.77951462109
2	62357	57.92	968.9184036209
2	62376	57.93	969.05729262071
2	62377	57.94	969.19618162052
2	62378	57.95	969.33507062033
2	62397	57.96	969.47395962015
2	62398	57.97	969.61284861996
2	62399	57.98	969.75173761977
2	62400	57.99	969.89062661958
2	62403	58	970.0295156194
2	62406	58.01	970.16840461921
2	62407	58.02	970.30729361903
2	62426	58.03	970.44618261884
2	62427	58.04	970.58507161865
2	62428	58.05	970.72396061847
2	62447	58.06	970.86284961828
2	62448	58.07	971.0017386181
2	62449	58.08	971.14062761791
2	62450	58.09	971.27951661773
2	62451	58.1	971.41840561755
2	62454	58.11	971.55729461736
2	62455	58.12	971.69618361718
2	62474	58.13	971.835072617
2	62475	58.14	971.97396161681
2	62476	58.15	972.11285061663
2	62495	58.16	972.25173961645
2	62496	58.17	972.39062861627
2	62497	58.18	972.52951761609
2	62498	58.19	972.66840661591
2	62499	58.2	972.80729561573
2	62502	58.21	972.94618461554
2	62503	58.22	973.08507361536
2	62522	58.23	973.22396261518
2	62523	58.24	973.362851615
2	62524	58.25	973.50174061482
2	62543	58.26	973.64062961465
2	62544	58.27	973.77951861447
2	62545	58.28	973.91840761429
2	62546	58.29	974.05729661411
2	62547	58.3	974.19618561393
2	62550	58.31	974.33507461375
2	62551	58.32	974.47396361358
2	62570	58.33	974.6128526134
2	62571	58.34	974.75174161322
2	62572	58.35	974.89063061304
2	62591	58.36	975.02951961287
2	62592	58.37	975.16840861269
2	62593	58.38	975.30729761252
2	62594	58.39	975.44618661234
2	62595	58.4	975.58507561217
2	62598	58.41	975.72396461199
2	62599	58.42	975.86285361182
2	62618	58.43	976.00174261164
2	62619	58.44	976.14063161147
2	62620	58.45	976.27952061129
2	62639	58.46	976.41840961112
2	62640	58.47	976.55729861095
2	62641	58.48	976.69618761077
2	62642	58.49	976.8350766106
2	62643	58.5	976.97396561043
2	62646	58.51	977.11285461025
2	62647	58.52	977.25174361008
2	62666	58.53	977.39063260991
2	62667	58.54	977.52952160974
2	62668	58.55	977.66841060957
2	62687	58.56	977.8072996094
2	62688	58.57	977.94618860923
2	62689	58.58	978.08507760906
2	62690	58.59	978.22396660889
2	62691	58.6	978.36285560872
2	62694	58.61	978.50174460855
2	62695	58.62	978.64063360838
2	62714	58.63	978.77952260821
2	62715	58.64	978.91841160804
2	62716	58.65	979.05730060787
2	62735	58.66	979.1961896077
2	62736	58.67	979.33507860753
2	62737	58.68	979.47396760736
2	62738	58.69	979.6128566072
2	62739	58.7	979.75174560703
2	62742	58.71	979.89063460686
2	62743	58.72	980.0295236067
2	62762	58.73	980.16841260653
2	62763	58.74	980.30730160636
2	62764	58.75	980.4461906062
2	62783	58.76	980.58507960603
2	62784	58.77	980.72396860587
2	62785	58.78	980.8628576057
2	62786	58.79	981.00174660554
2	62787	58.8	981.14063560537
2	62790	58.81	981.27952460521
2	62791	58.82	981.41841360504
2	62810	58.83	981.55730260488
2	62811	58.84	981.69619160471
2	62812	58.85	981.83508060455
2	62831	58.86	981.97396960439
2	62832	58.87	982.11285860422
2	62833	58.88	982.25174760406
2	62834	58.89	982.3906366039
2	62835	58.9	982.52952560374
2	62838	58.91	982.66841460358
2	62839	58.92	982.80730360341
2	62858	58.93	982.94619260325
2	62859	58.94	983.08508160309
2	62860	58.95	983.22397060293
2	62879	58.96	983.36285960277
2	62880	58.97	983.50174860261
2	62881	58.98	983.64063760245
2	62882	58.99	983.77952660229
2	62885	59	983.91841560213
2	62888	59.01	984.05730460197
2	62889	59.02	984.19619360181
2	62908	59.03	984.33508260165
2	62909	59.04	984.47397160149
2	62910	59.05	984.61286060133
2	62929	59.06	984.75174960118
2	62930	59.07	984.89063860102
2	62931	59.08	985.02952760086
2	62932	59.09	985.1684166007
2	62933	59.1	985.30730560055
2	62936	59.11	985.44619460039
2	62937	59.12	985.58508360023
2	62956	59.13	985.72397260008
2	62957	59.14	985.86286159992
2	62958	59.15	986.00175059976
2	62977	59.16	986.14063959961
2	62978	59.17	986.27952859945
2	62979	59.18	986.4184175993
2	62980	59.19	986.55730659914
2	62981	59.2	986.69619559899
2	62984	59.21	986.83508459883
2	62985	59.22	986.97397359868
2	63004	59.23	987.11286259852
2	63005	59.24	987.25175159837
2	63006	59.25	987.39064059822
2	63025	59.26	987.52952959806
2	63026	59.27	987.66841859791
2	63027	59.28	987.80730759776
2	63028	59.29	987.94619659761
2	63029	59.3	988.08508559745
2	63032	59.31	988.2239745973
2	63033	59.32	988.36286359715
2	63052	59.33	988.501752597
2	63053	59.34	988.64064159685
2	63054	59.35	988.77953059669
2	63073	59.36	988.91841959654
2	63074	59.37	989.05730859639
2	63075	59.38	989.19619759624
2	63076	59.39	989.33508659609
2	63077	59.4	989.47397559594
2	63080	59.41	989.61286459579
2	63081	59.42	989.75175359564
2	63100	59.43	989.89064259549
2	63101	59.44	990.02953159534
2	63102	59.45	990.1684205952
2	63121	59.46	990.30730959505
2	63122	59.47	990.4461985949
2	63123	59.48	990.58508759475
2	63124	59.49	990.7239765946
2	63125	59.5	990.86286559446
2	63128	59.51	991.00175459431
2	63129	59.52	991.14064359416
2	63148	59.53	991.27953259401
2	63149	59.54	991.41842159387
2	63150	59.55	991.55731059372
2	63169	59.56	991.69619959357
2	63170	59.57	991.83508859343
2	63171	59.58	991.97397759328
2	63172	59.59	992.11286659314
2	63173	59.6	992.25175559299
2	63176	59.61	992.39064459285
2	63177	59.62	992.5295335927
2	63196	59.63	992.66842259256
2	63197	59.64	992.80731159241
2	63198	59.65	992.94620059227
2	63217	59.66	993.08508959212
2	63218	59.67	993.22397859198
2	63219	59.68	993.36286759183
2	63220	59.69	993.50175659169
2	63221	59.7	993.64064559155
2	63224	59.71	993.77953459141
2	63225	59.72	993.91842359126
2	63244	59.73	994.05731259112
2	63245	59.74	994.19620159098
2	63246	59.75	994.33509059084
2	63265	59.76	994.47397959069
2	63266	59.77	994.61286859055
2	63267	59.78	994.75175759041
2	63268	59.79	994.89064659027
2	63269	59.8	995.02953559013
2	63272	59.81	995.16842458999
2	63273	59.82	995.30731358985
2	63292	59.83	995.44620258971
2	63293	59.84	995.58509158957
2	63294	59.85	995.72398058943
2	63313	59.86	995.86286958929
2	63314	59.87	996.00175858915
2	63315	59.88	996.14064758901
2	63316	59.89	996.27953658887
2	63317	59.9	996.41842558873
2	63320	59.91	996.55731458859
2	63321	59.92	996.69620358845
2	63340	59.93	996.83509258832
2	63341	59.94	996.97398158818
2	63342	59.95	997.11287058804
2	63361	59.96	997.2517595879
2	63362	59.97	997.39064858777
2	63363	59.98	997.52953758763
2	63364	59.99	997.66842658749
2	63367	60	997.80731558736
2	63370	60.01	997.94620458722
2	63371	60.02	998.08509358708
2	63390	60.03	998.22398258695
2	63391	60.04	998.36287158681
2	63392	60.05	998.50176058668
2	63411	60.06	998.64064958654
2	63412	60.07	998.77953858641
2	63413	60.08	998.91842758627
2	63414	60.09	999.05731658614
2	63415	60.1	999.196205586
2	63418	60.11	999.33509458587
2	63419	60.12	999.47398358573
2	63438	60.13	999.6128725856
2	63439	60.14	999.75176158547
2	63440	60.15	999.89065058533
2	63459	60.16	1000.0295395852
2	63460	60.17	1000.1684285851
2	63461	60.18	1000.3073175849
2	63462	60.19	1000.4462065848
2	63463	60.2	1000.5850955847
2	63466	60.21	1000.7239845845
2	63467	60.22	1000.8628735844
2	63486	60.23	1001.0017625843
2	63487	60.24	1001.1406515841
2	63488	60.25	1001.279540584
2	63507	60.26	1001.4184295839
2	63508	60.27	1001.5573185837
2	63509	60.28	1001.6962075836
2	63510	60.29	1001.8350965835
2	63511	60.3	1001.9739855834
2	63514	60.31	1002.1128745832
2	63515	60.32	1002.2517635831
2	63534	60.33	1002.390652583
2	63535	60.34	1002.5295415828
2	63536	60.35	1002.6684305827
2	63555	60.36	1002.8073195826
2	63556	60.37	1002.9462085824
2	63557	60.38	1003.0850975823
2	63558	60.39	1003.2239865822
2	63559	60.4	1003.3628755821
2	63562	60.41	1003.5017645819
2	63563	60.42	1003.6406535818
2	63582	60.43	1003.7795425817
2	63583	60.44	1003.9184315816
2	63584	60.45	1004.0573205814
2	63603	60.46	1004.1962095813
2	63604	60.47	1004.3350985812
2	63605	60.48	1004.473987581
2	63606	60.49	1004.6128765809
2	63607	60.5	1004.7517655808
2	63610	60.51	1004.8906545807
2	63611	60.52	1005.0295435805
2	63630	60.53	1005.1684325804
2	63631	60.54	1005.3073215803
2	63632	60.55	1005.4462105802
2	63651	60.56	1005.58509958
2	63652	60.57	1005.7239885799
2	63653	60.58	1005.8628775798
2	63654	60.59	1006.0017665797
2	63655	60.6	1006.1406555795
2	63658	60.61	1006.2795445794
2	63659	60.62	1006.4184335793
2	63678	60.63	1006.5573225792
2	63679	60.64	1006.696211579
2	63680	60.65	1006.8351005789
2	63699	60.66	1006.9739895788
2	63700	60.67	1007.1128785787
2	63701	60.68	1007.2517675786
2	63702	60.69	1007.3906565784
2	63703	60.7	1007.5295455783
2	63706	60.71	1007.6684345782
2	63707	60.72	1007.8073235781
2	63726	60.73	1007.9462125779
2	63727	60.74	1008.0851015778
2	63728	60.75	1008.2239905777
2	63747	60.76	1008.3628795776
2	63748	60.77	1008.5017685775
2	63749	60.78	1008.6406575773
2	63750	60.79	1008.7795465772
2	63751	60.8	1008.9184355771
2	63754	60.81	1009.057324577
2	63755	60.82	1009.1962135769
2	63774	60.83	1009.3351025767
2	63775	60.84	1009.4739915766
2	63776	60.85	1009.6128805765
2	63795	60.86	1009.7517695764
2	63796	60.87	1009.8906585763
2	63797	60.88	1010.0295475761
2	63798	60.89	1010.168436576
2	63799	60.9	1010.3073255759
2	63802	60.91	1010.4462145758
2	63803	60.92	1010.5851035757
2	63822	60.93	1010.7239925755
2	63823	60.94	1010.8628815754
2	63824	60.95	1011.0017705753
2	63843	60.96	1011.1406595752
2	63844	60.97	1011.2795485751
2	63845	60.98	1011.418437575
2	63846	60.99	1011.5573265748
2	63849	61	1011.6962155747
2	63852	61.01	1011.8351045746
2	63853	61.02	1011.9739935745
2	63872	61.03	1012.1128825744
2	63873	61.04	1012.2517715743
2	63874	61.05	1012.3906605741
2	63893	61.06	1012.529549574
2	63894	61.07	1012.6684385739
2	63895	61.08	1012.8073275738
2	63896	61.09	1012.9462165737
2	63897	61.1	1013.0851055736
2	63900	61.11	1013.2239945734
2	63901	61.12	1013.3628835733
2	63920	61.13	1013.5017725732
2	63921	61.14	1013.6406615731
2	63922	61.15	1013.779550573
2	63941	61.16	1013.9184395729
2	63942	61.17	1014.0573285728
2	63943	61.18	1014.1962175726
2	63944	61.19	1014.3351065725
2	63945	61.2	1014.4739955724
2	63948	61.21	1014.6128845723
2	63949	61.22	1014.7517735722
2	63968	61.23	1014.8906625721
2	63969	61.24	1015.029551572
2	63970	61.25	1015.1684405719
2	63989	61.26	1015.3073295717
2	63990	61.27	1015.4462185716
2	63991	61.28	1015.5851075715
2	63992	61.29	1015.7239965714
2	63993	61.3	1015.8628855713
2	63996	61.31	1016.0017745712
2	63997	61.32	1016.1406660221
2	64008	61.33	1016.2795647778
2	64009	61.34	1016.4184755972
2	64010	61.35	1016.5574031456
2	64011	61.36	1016.6963519969
2	64012	61.37	1016.8353266355
2	64013	61.38	1016.9743314577
2	64014	61.39	1017.1133707735
2	64015	61.4	1017.2524488086
2	64017	61.41	1017.3915697058
2	64018	61.42	1017.5307375265
2	64029	61.43	1017.6699562528
2	64030	61.44	1017.8092297883
2	64031	61.45	1017.9485619604
2	64032	61.46	1018.0879565212
2	64033	61.47	1018.2274171495
2	64034	61.48	1018.3669474518
2	64035	61.49	1018.5065509638
2	64036	61.5	1018.646231152
2	64038	61.51	1018.785991415
2	64039	61.52	1018.9258350845
2	64050	61.53	1019.0657654273
2	64051	61.54	1019.2057856456
2	64052	61.55	1019.3458988793
2	64053	61.56	1019.4861082064
2	64054	61.57	1019.6264166448
2	64055	61.58	1019.766827153
2	64056	61.59	1019.9073426316
2	64057	61.6	1020.0479659244
2	64059	61.61	1020.1886998192
2	64060	61.62	1020.3295470495
2	64071	61.63	1020.4705102949
2	64072	61.64	1020.6115921824
2	64073	61.65	1020.7527952879
2	64074	61.66	1020.8941221364
2	64075	61.67	1021.0355752036
2	64076	61.68	1021.1771569165
2	64077	61.69	1021.3188696547
2	64078	61.7	1021.4607157509
2	64080	61.71	1021.6026974923
2	64081	61.72	1021.7448171211
2	64092	61.73	1021.8870768356
2	64093	61.74	1022.029478791
2	64094	61.75	1022.1720251002
2	64095	61.76	1022.3147178347
2	64096	61.77	1022.4575590254
2	64097	61.78	1022.6005506634
2	64098	61.79	1022.7436947006
2	64099	61.8	1022.8869930508
2	64101	61.81	1023.0304475902
2	64102	61.82	1023.1740601582
2	64113	61.83	1023.3178325583
2	64114	61.84	1023.4617665583
2	64115	61.85	1023.6058638917
2	64116	61.86	1023.7501262577
2	64117	61.87	1023.8945553225
2	64118	61.88	1024.0391527193
2	64119	61.89	1024.1839200495
2	64120	61.9	1024.328858883
2	64122	61.91	1024.473970759
2	64123	61.92	1024.6192571865
2	64134	61.93	1024.7647196448

