version 3
run OvertakeNoGui-145-20241104-10:00:04-90656
attr configname OvertakeNoGui
attr datetime 20241104-10:00:04
attr datetimef 20241104-100004
attr experiment OvertakeNoGui
attr inifile omnetpp.ini
attr iterationvars "$leaderHeadway=1.2, $leaderSpeed=50, $controller=0, $pCSpeed=51, $pDeltaC=508"
attr iterationvarsd leaderHeadway=1.2/leaderSpeed=50/controller=0/pCSpeed=51/pDeltaC=508
attr iterationvarsf leaderHeadway=1.2,leaderSpeed=50,controller=0,pCSpeed=51,pDeltaC=508-
attr measurement "$leaderHeadway=1.2, $leaderSpeed=50, $controller=0, $pCSpeed=51, $pDeltaC=508"
attr network Overtake
attr processid 90656
attr repetition 0
attr replication #0
attr resultdir results
attr runnumber 145
attr seedset 0
itervar controller 0
itervar leaderHeadway 1.2
itervar leaderSpeed 50
itervar pCSpeed 51
itervar pDeltaC 508
config image-path ../../../../veins/images;../../images
config *.manager.command "\"sumo\""
config *.manager.ignoreGuiCommands true
config *.node[*].scenario_type "\"OvertakeScenario\""
config output-vector-file results/OvertakeNoGui_51_508_0.vec
config output-scalar-file results/OvertakeNoGui_51_508_0.sca
config cmdenv-express-mode false
config cmdenv-autoflush true
config cmdenv-status-frequency 10s
config num-rngs 6
config cmdenv-output-file log.txt
config cmdenv-redirect-output true
config network Overtake
config debug-on-errors true
config print-undisposed true
config *.playgroundSizeX 65000m
config *.playgroundSizeY 25000m
config *.playgroundSizeZ 50m
config sim-time-limit "360 s"
config *.annotations.draw false
config *.obstacles.debug false
config *.world.useTorus false
config *.world.use2D false
config *.manager.updateInterval 0.01s
config *.manager.host "\"localhost\""
config *.manager.moduleType "\"vtypeauto=org.car2x.plexe.PlatoonCar vtypehuman=0\""
config *.manager.moduleName "\"vtypeauto=node vtypehuman=0\""
config *.manager.moduleDisplayString "\"\""
config *.manager.autoShutdown true
config *.manager.margin 25
config *.manager.order -1
config *.connectionManager.sendDirect true
config *.connectionManager.maxInterfDist 2600m
config *.connectionManager.drawMaxIntfDist false
config *.**.nic.mac1609_4.useServiceChannel false
config *.**.nic.mac1609_4.txPower 100mW
config *.**.nic.mac1609_4.bitrate 6Mbps
config *.**.nic.mac1609_4.useAcks true
config *.**.nic.mac1609_4.ackErrorRate 0.0
config *.**.nic.mac1609_4.frameErrorRate 0.0
config *.**.nic.phy80211p.minPowerLevel -94dBm
config *.**.nic.phy80211p.maxTXPower 100mW
config *.**.nic.phy80211p.useNoiseFloor true
config *.**.nic.phy80211p.noiseFloor -95dBm
config *.**.nic.phy80211p.decider "xmldoc(\"config.xml\")"
config *.**.nic.phy80211p.analogueModels "xmldoc(\"config.xml\")"
config *.**.nic.phy80211p.usePropagationDelay true
config *.node[*].mobility.x 0
config *.node[*].mobility.y 0
config *.node[*].mobility.z 1.895
config *.shockwave[*].mobility.x 0
config *.shockwave[*].mobility.y 0
config *.shockwave[*].mobility.z 1.895
config seed-set 0
config **.seed 0
config *.node[*].prot.rng-0 2
config *.node[*].appl.rng-0 3
config *.node[*].scenario.rng-0 4
config *.manager.configFile "\"./sumocfg/overtake.sumo.cfg\""
config *.manager.launchConfig "xmldoc(\"./sumocfg/overtake.launchd.xml\")"
config *.node[*].helper_type "\"PositionHelper\""
config *.node[*].scenario.caccC1 0.5
config *.node[*].scenario.caccXi 1
config *.node[*].scenario.caccOmegaN "0.2 Hz"
config *.node[*].scenario.caccSpacing "5 m"
config *.node[*].scenario.engineTau "0.5 s"
config *.node[*].scenario.ploegH "0.5 s"
config *.node[*].scenario.ploegKp 0.2
config *.node[*].scenario.ploegKd 0.7
config *.node[*].scenario.useRealisticEngine false
config *.node[*].scenario.targetController "\"CACC\""
config *.node[*].scenario.accHeadway "0.1 s"
config *.node[*].scenario.leaderHeadway "1.2 s"
config *.node[*].scenario.leaderSpeed "50 kmph"
config *.node[*].appl_type "\"OvertakeApp\""
config *.node[*].appl.*.scalar-recording true
config *.node[*].appl.*.vector-recording true
config *.node[*].appl.overtakeManeuver "\"OvertakeManeuver\""
config *.node[*].protocol_type "\"SimplePlatooningBeaconing\""
config *.node[*].prot.*.scalar-recording true
config *.node[*].prot.*.vector-recording true
config *.node[*].prot.beaconingInterval "0.1 s"
config *.node[*].prot.priority 4
config *.node[*].prot.packetSize 200
config *.node[*].prot.useControllerAcceleration true
config **.traffic_type "\"OvertakeTrafficManager\""
config **.traffic.platoonInsertTime "0.1 s"
config **.traffic.platooningVType "\"vtypeauto\""
config **.numericController 0
config **.traffic.platoonInsertDistance 5m
config **.traffic.platoonInsertHeadway 0s
config **.traffic.platoonLeaderHeadway 1.2s
config **.traffic.platoonASpeed 50kmph
config **.traffic.platoonBSpeed 100kmph
config **.traffic.platoonCSpeed 51kmph
config **.traffic.platoonSizeA 2
config **.traffic.platoonSizeB 1
config **.traffic.platoonSizeC 1
config **.traffic.initialPositionDeltaA 150
config **.traffic.initialPositionDeltaB 50
config **.traffic.initialPositionDeltaC 508
config **.traffic.controller "\"CACC\""
config **.scalar-recording true
config **.vector-recording true

vector 0 Overtake.node[0].mobility posx ETV
vector 1 Overtake.node[0].mobility posy ETV
vector 2 Overtake.node[1].mobility posx ETV
vector 3 Overtake.node[1].mobility posy ETV
vector 4 Overtake.node[2].mobility posx ETV
vector 5 Overtake.node[2].mobility posy ETV
vector 6 Overtake.node[3].mobility posx ETV
vector 7 Overtake.node[3].mobility posy ETV
vector 8 Overtake.node[0].mobility speed ETV
vector 9 Overtake.node[1].mobility speed ETV
vector 10 Overtake.node[2].mobility speed ETV
vector 11 Overtake.node[3].mobility speed ETV
vector 12 Overtake.node[0].mobility acceleration ETV
vector 13 Overtake.node[0].mobility co2emission ETV
vector 14 Overtake.node[1].mobility acceleration ETV
vector 15 Overtake.node[1].mobility co2emission ETV
vector 16 Overtake.node[2].mobility acceleration ETV
vector 17 Overtake.node[2].mobility co2emission ETV
vector 18 Overtake.node[3].mobility acceleration ETV
vector 19 Overtake.node[3].mobility co2emission ETV
vector 20 Overtake.node[0].appl distance ETV
vector 21 Overtake.node[0].appl relativeSpeed ETV
vector 22 Overtake.node[0].appl nodeId ETV
vector 23 Overtake.node[0].appl acceleration ETV
vector 24 Overtake.node[0].appl controllerAcceleration ETV
vector 25 Overtake.node[0].appl speed ETV
vector 26 Overtake.node[0].appl posx ETV
vector 27 Overtake.node[0].appl posy ETV
vector 28 Overtake.node[1].appl distance ETV
vector 29 Overtake.node[1].appl relativeSpeed ETV
vector 30 Overtake.node[1].appl nodeId ETV
vector 31 Overtake.node[1].appl acceleration ETV
vector 32 Overtake.node[1].appl controllerAcceleration ETV
vector 33 Overtake.node[1].appl speed ETV
vector 34 Overtake.node[1].appl posx ETV
vector 35 Overtake.node[1].appl posy ETV
vector 36 Overtake.node[2].appl distance ETV
vector 37 Overtake.node[2].appl relativeSpeed ETV
vector 38 Overtake.node[2].appl nodeId ETV
vector 39 Overtake.node[2].appl acceleration ETV
vector 40 Overtake.node[2].appl controllerAcceleration ETV
vector 41 Overtake.node[2].appl speed ETV
vector 42 Overtake.node[2].appl posx ETV
vector 43 Overtake.node[2].appl posy ETV
vector 44 Overtake.node[3].appl distance ETV
vector 45 Overtake.node[3].appl relativeSpeed ETV
vector 46 Overtake.node[3].appl nodeId ETV
vector 47 Overtake.node[3].appl acceleration ETV
vector 48 Overtake.node[3].appl controllerAcceleration ETV
vector 49 Overtake.node[3].appl speed ETV
vector 50 Overtake.node[3].appl posx ETV
vector 51 Overtake.node[3].appl posy ETV
vector 52 Overtake.node[1].prot leaderDelay ETV
vector 53 Overtake.node[1].prot leaderDelayId ETV
vector 54 Overtake.node[1].prot frontDelay ETV
vector 55 Overtake.node[1].prot frontDelayId ETV
vector 56 Overtake.node[0].prot nodeId ETV
vector 57 Overtake.node[0].prot busyTime ETV
vector 58 Overtake.node[0].prot collisions ETV
vector 59 Overtake.node[1].prot nodeId ETV
vector 60 Overtake.node[1].prot busyTime ETV
vector 61 Overtake.node[1].prot collisions ETV
vector 62 Overtake.node[2].prot nodeId ETV
vector 63 Overtake.node[2].prot busyTime ETV
vector 64 Overtake.node[2].prot collisions ETV
vector 65 Overtake.node[3].prot nodeId ETV
vector 66 Overtake.node[3].prot busyTime ETV
vector 67 Overtake.node[3].prot collisions ETV
48	26	0.21	-0.00327777
48	176	0.31	-0.00320128
48	326	0.41	-0.00308111
48	476	0.51	-0.00292728
48	626	0.61	-0.00274857
48	776	0.71	-0.00255267
48	926	0.81	-0.00234618
48	1076	0.91	-0.00213471
48	1230	1.01	-0.00192294
48	1381	1.11	-0.00171473
48	1532	1.21	-0.00151316
48	1683	1.31	-0.00132067
48	2046	1.41	-0.00113907
48	2196	1.51	-0.000969668
48	2346	1.61	-0.000813306
48	2496	1.71	-0.000670447
48	2646	1.81	-0.000541228
48	2796	1.91	-0.000425516
48	2950	2.01	-0.00032296
48	3100	2.11	-0.000233036
48	3250	2.21	-0.000155087
48	3400	2.31	-8.83603e-05
48	3763	2.41	-3.20362e-05
48	3914	2.51	1.47438e-05
48	4064	2.61	5.28552e-05
48	4214	2.71	8.31719e-05
48	4364	2.81	0.00010655
48	4514	2.91	0.000123818
48	4668	3.01	0.000135762
48	4818	3.11	0.000143126
48	4968	3.21	0.0001466
48	5118	3.31	0.00014682
48	5269	3.41	0.000144367
48	5676	3.51	0.000139766
48	5826	3.61	0.000133484
48	5976	3.71	0.000125937
48	6126	3.81	0.000117487
48	6276	3.91	0.000108447
48	6430	4.01	9.9087e-05
48	6580	4.11	8.9631e-05
48	6730	4.21	8.02661e-05
48	6880	4.31	7.1144e-05
48	7030	4.41	6.23847e-05
48	7393	4.51	5.40801e-05
48	7544	4.61	4.62974e-05
48	7694	4.71	3.90826e-05
48	7844	4.81	3.24629e-05
48	7994	4.91	2.64502e-05
48	8148	5.01	2.10433e-05
48	8298	5.11	1.62303e-05
48	8448	5.21	1.19909e-05
48	8598	5.31	8.298e-06
48	8748	5.41	5.11973e-06
48	8899	5.51	2.42061e-06
48	9262	5.61	1.62981e-07
48	9412	5.71	-1.69199e-06
48	9562	5.81	-3.18336e-06
48	9712	5.91	-4.34971e-06
48	9866	6.01	-5.2285e-06
48	10016	6.11	-5.85565e-06
48	10166	6.21	-6.26509e-06
48	10316	6.31	-6.48862e-06
48	10466	6.41	-6.5556e-06
48	10616	6.51	-6.49297e-06
48	11023	6.61	-6.32514e-06
48	11174	6.71	-6.07401e-06
48	11324	6.81	-5.75905e-06
48	11474	6.91	-5.39739e-06
48	11628	7.01	-5.00389e-06
48	11778	7.11	-4.59133e-06
48	11928	7.21	-4.17054e-06
48	12078	7.31	-3.75054e-06
48	12228	7.41	-3.33873e-06
48	12378	7.51	-2.94102e-06
48	12529	7.61	-2.56201e-06
48	12892	7.71	-2.20513e-06
48	13042	7.81	-1.87282e-06
48	13192	7.91	-1.56662e-06
48	13346	8.01	-1.28733e-06
48	13496	8.11	-1.03512e-06
48	13646	8.21	-8.09661e-07
48	13796	8.31	-6.10182e-07
48	13946	8.41	-4.35596e-07
48	14096	8.51	-2.84561e-07
48	14246	8.61	-1.55556e-07
48	14609	8.71	-4.6937e-08
48	14760	8.81	4.30102e-08
48	14910	8.91	1.16027e-07
48	15064	9.01	1.73845e-07
48	15214	9.11	2.18158e-07
48	15364	9.21	2.50597e-07
48	15514	9.31	2.72714e-07
48	15664	9.41	2.85966e-07
48	15814	9.51	2.91708e-07
48	15964	9.61	2.91186e-07
48	16115	9.71	2.85536e-07
48	16522	9.81	2.75779e-07
48	16672	9.91	2.62829e-07
48	16826	10.01	2.47491e-07
48	16976	10.11	2.3047e-07
48	17126	10.21	2.12373e-07
48	17276	10.31	1.93718e-07
48	17426	10.41	1.7494e-07
48	17576	10.51	1.56398e-07
48	17726	10.61	1.38382e-07
48	17876	10.71	1.2112e-07
48	18239	10.81	1.04787e-07
48	18390	10.91	8.95092e-08
48	18544	11.01	7.53703e-08
48	18694	11.11	6.24198e-08
48	18844	11.21	5.06763e-08
48	18994	11.31	4.01336e-08
48	19144	11.41	3.07651e-08
48	19294	11.51	2.25279e-08
48	19444	11.61	1.53664e-08
48	19594	11.71	9.21592e-09
48	19745	11.81	4.00515e-09
48	20108	11.91	-3.41416e-10
48	20262	12.01	-3.90088e-09
48	20412	12.11	-6.75104e-09
48	20562	12.21	-8.96812e-09
48	20712	12.31	-1.0626e-08
48	20862	12.41	-1.17954e-08
48	21012	12.51	-1.25432e-08
48	21162	12.61	-1.29317e-08
48	21312	12.71	-1.30184e-08
48	21462	12.81	-1.2856e-08
48	21869	12.91	-1.24922e-08
48	22024	13.01	-1.19698e-08
48	22174	13.11	-1.13266e-08
48	22324	13.21	-1.05958e-08
48	22474	13.31	-9.8062e-09
48	22624	13.41	-8.9825e-09
48	22774	13.51	-8.14584e-09
48	22924	13.61	-7.31326e-09
48	23074	13.71	-6.49916e-09
48	23224	13.81	-5.71472e-09
48	23375	13.91	-4.96883e-09
48	23742	14.01	-4.2677e-09
48	23892	14.11	-3.61595e-09
48	24042	14.21	-3.01661e-09
48	24192	14.31	-2.47073e-09
48	24342	14.41	-1.97868e-09
48	24492	14.51	-1.53939e-09
48	24642	14.61	-1.15161e-09
48	24792	14.71	-8.12683e-10
48	24942	14.81	-5.20117e-10
48	25092	14.91	-2.70717e-10
48	25459	15.01	-6.12843e-11
48	25610	15.11	1.11555e-10
48	25760	15.21	2.51354e-10
48	25910	15.31	3.61489e-10
48	26060	15.41	4.4551e-10
48	26210	15.51	5.06262e-10
48	26360	15.61	5.47118e-10
48	26510	15.71	5.70921e-10
48	26660	15.81	5.79981e-10
48	26810	15.91	5.77138e-10
48	26964	16.01	5.64526e-10
48	27114	16.11	5.4392e-10
48	27264	16.21	5.17453e-10
48	27414	16.31	4.86367e-10
48	27564	16.41	4.52083e-10
48	27714	16.51	4.15845e-10
48	27864	16.61	3.78719e-10
48	28014	16.71	3.41416e-10
48	28164	16.81	3.04823e-10
48	28314	16.91	2.69296e-10
48	28468	17.01	2.35367e-10
48	28618	17.11	2.03215e-10
48	28768	17.21	1.73195e-10
48	28918	17.31	1.45484e-10
48	29068	17.41	1.20259e-10
48	29218	17.51	9.71667e-11
48	29368	17.61	7.6561e-11
48	29518	17.71	5.82645e-11
48	29668	17.81	4.22773e-11
48	29818	17.91	2.82441e-11
48	29972	18.01	1.63425e-11
48	30122	18.11	6.21725e-12
48	30272	18.21	-2.13163e-12
48	30422	18.31	-9.05942e-12
48	30572	18.41	-1.43885e-11
48	30722	18.51	-1.86517e-11
48	30872	18.61	-2.18492e-11
48	31022	18.71	-2.39808e-11
48	31172	18.81	-2.54019e-11
48	31322	18.91	-2.59348e-11
48	31476	19.01	-2.61124e-11
48	31626	19.11	-2.55795e-11
48	31776	19.21	-2.4869e-11
48	31926	19.31	-2.38032e-11
48	32076	19.41	-2.23821e-11
48	32226	19.51	-2.0961e-11
48	32376	19.61	-1.93623e-11
48	32526	19.71	-1.77636e-11
48	32676	19.81	-1.61648e-11
48	32826	19.91	-1.45661e-11
48	32980	20.01	-1.27898e-11
48	33130	20.11	-1.1191e-11
48	33280	20.21	-9.76996e-12
48	33430	20.31	-8.34888e-12
48	33580	20.41	-7.10543e-12
48	33730	20.51	-6.03961e-12
48	33880	20.61	-4.9738e-12
48	34030	20.71	-4.08562e-12
48	34180	20.81	-3.37508e-12
48	34330	20.91	-2.66454e-12
48	34484	21.01	-1.95399e-12
48	34634	21.11	-1.24345e-12
48	34784	21.21	-7.10543e-13
48	34934	21.31	-1.77636e-13
48	35084	21.41	1.77636e-13
48	35234	21.51	5.32907e-13
48	35384	21.61	8.88178e-13
48	35534	21.71	1.24345e-12
48	35684	21.81	1.59872e-12
48	35834	21.91	1.95399e-12
48	35988	22.01	2.13163e-12
48	36138	22.11	2.30926e-12
48	36288	22.21	2.4869e-12
48	36438	22.31	2.66454e-12
48	36588	22.41	2.84217e-12
48	36738	22.51	3.01981e-12
48	36888	22.61	3.19744e-12
48	37038	22.71	3.37508e-12
48	37188	22.81	3.37508e-12
48	37338	22.91	3.55271e-12
48	37492	23.01	3.55271e-12
48	37642	23.11	3.73035e-12
48	37792	23.21	3.73035e-12
48	37942	23.31	3.73035e-12
48	38092	23.41	3.90799e-12
48	38242	23.51	3.90799e-12
48	38392	23.61	3.90799e-12
48	38542	23.71	4.08562e-12
48	38692	23.81	4.08562e-12
48	38842	23.91	4.08562e-12
48	38996	24.01	4.08562e-12
48	39146	24.11	4.08562e-12
48	39296	24.21	4.26326e-12
48	39446	24.31	4.26326e-12
48	39596	24.41	4.26326e-12
48	39746	24.51	4.26326e-12
48	39896	24.61	4.26326e-12
48	40046	24.71	4.26326e-12
48	40196	24.81	4.26326e-12
48	40346	24.91	4.26326e-12
48	40500	25.01	4.26326e-12
48	40650	25.11	4.26326e-12
48	40800	25.21	4.44089e-12
48	40950	25.31	4.44089e-12
48	41100	25.41	4.44089e-12
48	41250	25.51	4.44089e-12
48	41400	25.61	4.44089e-12
48	41550	25.71	4.44089e-12
48	41700	25.81	4.44089e-12
48	41850	25.91	4.44089e-12
48	42004	26.01	4.44089e-12
48	42154	26.11	4.44089e-12
48	42304	26.21	4.44089e-12
48	42454	26.31	4.44089e-12
48	42604	26.41	4.44089e-12
48	42754	26.51	4.44089e-12
48	42904	26.61	4.44089e-12
48	43055	26.71	4.44089e-12
48	43205	26.81	4.44089e-12
48	43355	26.91	4.44089e-12
48	43509	27.01	4.44089e-12
48	43659	27.11	4.44089e-12
48	43809	27.21	4.44089e-12
48	43959	27.31	4.44089e-12
48	44109	27.41	4.44089e-12
48	44259	27.51	4.44089e-12
48	44409	27.61	4.44089e-12
48	44559	27.71	4.44089e-12
48	44709	27.81	4.44089e-12
48	44859	27.91	4.44089e-12
48	45013	28.01	4.44089e-12
48	45163	28.11	4.44089e-12
48	45313	28.21	4.44089e-12
48	45463	28.31	4.44089e-12
48	45613	28.41	4.44089e-12
48	45763	28.51	4.44089e-12
48	45913	28.61	4.44089e-12
48	46063	28.71	4.44089e-12
48	46213	28.81	4.44089e-12
48	46363	28.91	4.44089e-12
48	46517	29.01	4.44089e-12
48	46667	29.11	4.44089e-12
48	46817	29.21	4.44089e-12
48	46967	29.31	4.44089e-12
48	47117	29.41	4.44089e-12
48	47267	29.51	4.44089e-12
48	47417	29.61	4.44089e-12
48	47567	29.71	4.44089e-12
48	47717	29.81	4.44089e-12
48	47867	29.91	4.44089e-12
48	48021	30.01	4.44089e-12
48	48171	30.11	4.44089e-12
48	48321	30.21	4.44089e-12
48	48471	30.31	4.44089e-12
48	48621	30.41	4.44089e-12
48	48771	30.51	4.44089e-12
48	48921	30.61	4.44089e-12
48	49071	30.71	4.44089e-12
48	49221	30.81	4.44089e-12
48	49371	30.91	4.44089e-12
48	49525	31.01	4.44089e-12
48	49675	31.11	4.44089e-12
48	49825	31.21	4.44089e-12
48	49975	31.31	4.44089e-12
48	50125	31.41	4.44089e-12
48	50275	31.51	4.44089e-12
48	50425	31.61	4.44089e-12
48	50575	31.71	4.44089e-12
48	50725	31.81	4.44089e-12
48	50875	31.91	4.44089e-12
48	51029	32.01	4.44089e-12
48	51179	32.11	4.44089e-12
48	51329	32.21	4.44089e-12
48	51479	32.31	4.44089e-12
48	51629	32.41	4.44089e-12
48	51779	32.51	4.44089e-12
48	51929	32.61	4.44089e-12
48	52079	32.71	4.44089e-12
48	52229	32.81	4.44089e-12
48	52379	32.91	4.44089e-12
48	52533	33.01	4.44089e-12
48	52683	33.11	4.44089e-12
48	52833	33.21	4.44089e-12
48	52983	33.31	4.44089e-12
48	53133	33.41	4.44089e-12
48	53283	33.51	4.44089e-12
48	53433	33.61	4.44089e-12
48	53583	33.71	4.44089e-12
48	53733	33.81	4.44089e-12
48	53883	33.91	4.44089e-12
48	54037	34.01	4.44089e-12
48	54187	34.11	4.44089e-12
48	54337	34.21	4.44089e-12
48	54487	34.31	4.44089e-12
48	54637	34.41	4.44089e-12
48	54787	34.51	4.44089e-12
48	54937	34.61	4.44089e-12
48	55087	34.71	4.44089e-12
48	55237	34.81	4.44089e-12
47	26	0.21	-0.000537287
47	176	0.31	-0.00102256
47	326	0.41	-0.0014023
47	476	0.51	-0.00168868
47	626	0.61	-0.00189332
47	776	0.71	-0.00202724
47	926	0.81	-0.00210073
47	1076	0.91	-0.00212335
47	1230	1.01	-0.00210382
47	1381	1.11	-0.00205006
47	1532	1.21	-0.00196919
47	1683	1.31	-0.00186754
47	2046	1.41	-0.00175064
47	2196	1.51	-0.00162335
47	2346	1.61	-0.00148981
47	2496	1.71	-0.00135354
47	2646	1.81	-0.00121748
47	2796	1.91	-0.00108402
47	2950	2.01	-0.000955094
47	3100	2.11	-0.0008322
47	3250	2.21	-0.000716459
47	3400	2.31	-0.00060866
47	3763	2.41	-0.00050931
47	3914	2.51	-0.000418674
47	4064	2.61	-0.000336812
47	4214	2.71	-0.000263615
47	4364	2.81	-0.00019884
47	4514	2.91	-0.000142136
47	4668	3.01	-9.30689e-05
47	4818	3.11	-5.11479e-05
47	4968	3.21	-1.58407e-05
47	5118	3.31	1.34077e-05
47	5269	3.41	3.7161e-05
47	5676	3.51	5.59805e-05
47	5826	3.61	7.0415e-05
47	5976	3.71	8.09934e-05
47	6126	3.81	8.82186e-05
47	6276	3.91	9.25636e-05
47	6430	4.01	9.44677e-05
47	6580	4.11	9.43354e-05
47	6730	4.21	9.25349e-05
47	6880	4.31	8.93982e-05
47	7030	4.41	8.52216e-05
47	7393	4.51	8.02667e-05
47	7544	4.61	7.47624e-05
47	7694	4.71	6.8906e-05
47	7844	4.81	6.28658e-05
47	7994	4.91	5.67832e-05
47	8148	5.01	5.07749e-05
47	8298	5.11	4.49353e-05
47	8448	5.21	3.93389e-05
47	8598	5.31	3.40422e-05
47	8748	5.41	2.90866e-05
47	8899	5.51	2.44995e-05
47	9262	5.61	2.02971e-05
47	9412	5.71	1.64857e-05
47	9562	5.81	1.30632e-05
47	9712	5.91	1.00213e-05
47	9866	6.01	7.34621e-06
47	10016	6.11	5.0199e-06
47	10166	6.21	3.02148e-06
47	10316	6.31	1.32788e-06
47	10466	6.41	-8.52683e-08
47	10616	6.51	-1.24302e-06
47	11023	6.61	-2.17048e-06
47	11174	6.71	-2.89239e-06
47	11324	6.81	-3.43273e-06
47	11474	6.91	-3.81443e-06
47	11628	7.01	-4.05915e-06
47	11778	7.11	-4.18709e-06
47	11928	7.21	-4.21695e-06
47	12078	7.31	-4.16581e-06
47	12228	7.41	-4.04914e-06
47	12378	7.51	-3.88081e-06
47	12529	7.61	-3.67311e-06
47	12892	7.71	-3.43684e-06
47	13042	7.81	-3.18138e-06
47	13192	7.91	-2.91475e-06
47	13346	8.01	-2.64375e-06
47	13496	8.11	-2.37401e-06
47	13646	8.21	-2.11015e-06
47	13796	8.31	-1.85584e-06
47	13946	8.41	-1.61394e-06
47	14096	8.51	-1.38655e-06
47	14246	8.61	-1.17514e-06
47	14609	8.71	-9.8063e-07
47	14760	8.81	-8.03478e-07
47	14910	8.91	-6.43741e-07
47	15064	9.01	-5.01155e-07
47	15214	9.11	-3.75196e-07
47	15364	9.21	-2.65136e-07
47	15514	9.31	-1.70093e-07
47	15664	9.41	-8.90738e-08
47	15814	9.51	-2.10125e-08
47	15964	9.61	3.51985e-08
47	16115	9.71	8.06798e-08
47	16522	9.81	1.16543e-07
47	16672	9.91	1.43873e-07
47	16826	10.01	1.63713e-07
47	16976	10.11	1.77052e-07
47	17126	10.21	1.84819e-07
47	17276	10.31	1.87876e-07
47	17426	10.41	1.87014e-07
47	17576	10.51	1.82953e-07
47	17726	10.61	1.76339e-07
47	17876	10.71	1.67752e-07
47	18239	10.81	1.57698e-07
47	18390	10.91	1.46622e-07
47	18544	11.01	1.34906e-07
47	18694	11.11	1.22875e-07
47	18844	11.21	1.10801e-07
47	18994	11.31	9.89095e-08
47	19144	11.41	8.73802e-08
47	19294	11.51	7.63549e-08
47	19444	11.61	6.59407e-08
47	19594	11.71	5.62148e-08
47	19745	11.81	4.72278e-08
47	20108	11.91	3.90086e-08
47	20262	12.01	3.15662e-08
47	20412	12.11	2.48946e-08
47	20562	12.21	1.89752e-08
47	20712	12.31	1.37788e-08
47	20862	12.41	9.26885e-09
47	21012	12.51	5.40279e-09
47	21162	12.61	2.13447e-09
47	21312	12.71	-5.84954e-10
47	21462	12.81	-2.8054e-09
47	21869	12.91	-4.57643e-09
47	22024	13.01	-5.94724e-09
47	22174	13.11	-6.9651e-09
47	22324	13.21	-7.67546e-09
47	22474	13.31	-8.12062e-09
47	22624	13.41	-8.33964e-09
47	22774	13.51	-8.37019e-09
47	22924	13.61	-8.24496e-09
47	23074	13.71	-7.99414e-09
47	23224	13.81	-7.64526e-09
47	23375	13.91	-7.22178e-09
47	23742	14.01	-6.74483e-09
47	23892	14.11	-6.2327e-09
47	24042	14.21	-5.70068e-09
47	24192	14.31	-5.16245e-09
47	24342	14.41	-4.62794e-09
47	24492	14.51	-4.10658e-09
47	24642	14.61	-3.60512e-09
47	24792	14.71	-3.12923e-09
47	24942	14.81	-2.68283e-09
47	25092	14.91	-2.26823e-09
47	25459	15.01	-1.88756e-09
47	25610	15.11	-1.54117e-09
47	25760	15.21	-1.22959e-09
47	25910	15.31	-9.5195e-10
47	26060	15.41	-7.0699e-10
47	26210	15.51	-4.93472e-10
47	26360	15.61	-3.09441e-10
47	26510	15.71	-1.52944e-10
47	26660	15.81	-2.18492e-11
47	26810	15.91	8.59757e-11
47	26964	16.01	1.73017e-10
47	27114	16.11	2.41407e-10
47	27264	16.21	2.93099e-10
47	27414	16.31	3.30402e-10
47	27564	16.41	3.54916e-10
47	27714	16.51	3.68594e-10
47	27864	16.61	3.73213e-10
47	28014	16.71	3.7037e-10
47	28164	16.81	3.61311e-10
47	28314	16.91	3.47455e-10
47	28468	17.01	3.29869e-10
47	28618	17.11	3.09441e-10
47	28768	17.21	2.87237e-10
47	28918	17.31	2.64144e-10
47	29068	17.41	2.40163e-10
47	29218	17.51	2.16716e-10
47	29368	17.61	1.93623e-10
47	29518	17.71	1.7053e-10
47	29668	17.81	1.48859e-10
47	29818	17.91	1.28253e-10
47	29972	18.01	1.08891e-10
47	30122	18.11	9.11271e-11
47	30272	18.21	7.51399e-11
47	30422	18.31	6.05738e-11
47	30572	18.41	4.76064e-11
47	30722	18.51	3.606e-11
47	30872	18.61	2.57572e-11
47	31022	18.71	1.68754e-11
47	31172	18.81	9.59233e-12
47	31322	18.91	3.19744e-12
47	31476	19.01	-2.13163e-12
47	31626	19.11	-6.21725e-12
47	31776	19.21	-9.76996e-12
47	31926	19.31	-1.22569e-11
47	32076	19.41	-1.40332e-11
47	32226	19.51	-1.58096e-11
47	32376	19.61	-1.61648e-11
47	32526	19.71	-1.61648e-11
47	32676	19.81	-1.61648e-11
47	32826	19.91	-1.61648e-11
47	32980	20.01	-1.61648e-11
47	33130	20.11	-1.56319e-11
47	33280	20.21	-1.42109e-11
47	33430	20.31	-1.27898e-11
47	33580	20.41	-1.15463e-11
47	33730	20.51	-1.04805e-11
47	33880	20.61	-9.41469e-12
47	34030	20.71	-8.52651e-12
47	34180	20.81	-7.81597e-12
47	34330	20.91	-7.10543e-12
47	34484	21.01	-6.39488e-12
47	34634	21.11	-5.68434e-12
47	34784	21.21	-5.15143e-12
47	34934	21.31	-4.61853e-12
47	35084	21.41	-4.26326e-12
47	35234	21.51	-3.90799e-12
47	35384	21.61	-3.55271e-12
47	35534	21.71	-3.19744e-12
47	35684	21.81	-2.84217e-12
47	35834	21.91	-2.4869e-12
47	35988	22.01	-2.30926e-12
47	36138	22.11	-2.13163e-12
47	36288	22.21	-1.95399e-12
47	36438	22.31	-1.77636e-12
47	36588	22.41	-1.59872e-12
47	36738	22.51	-1.42109e-12
47	36888	22.61	-1.24345e-12
47	37038	22.71	-1.06581e-12
47	37188	22.81	-1.06581e-12
47	37338	22.91	-8.88178e-13
47	37492	23.01	-8.88178e-13
47	37642	23.11	-7.10543e-13
47	37792	23.21	-7.10543e-13
47	37942	23.31	-7.10543e-13
47	38092	23.41	-5.32907e-13
47	38242	23.51	-5.32907e-13
47	38392	23.61	-5.32907e-13
47	38542	23.71	-3.55271e-13
47	38692	23.81	-3.55271e-13
47	38842	23.91	-3.55271e-13
47	38996	24.01	-3.55271e-13
47	39146	24.11	-3.55271e-13
47	39296	24.21	-1.77636e-13
47	39446	24.31	-1.77636e-13
47	39596	24.41	-1.77636e-13
47	39746	24.51	-1.77636e-13
47	39896	24.61	-1.77636e-13
47	40046	24.71	-1.77636e-13
47	40196	24.81	-1.77636e-13
47	40346	24.91	-1.77636e-13
47	40500	25.01	-1.77636e-13
47	40650	25.11	-1.77636e-13
47	40800	25.21	0
47	40950	25.31	0
47	41100	25.41	0
47	41250	25.51	0
47	41400	25.61	0
47	41550	25.71	0
47	41700	25.81	0
47	41850	25.91	0
47	42004	26.01	0
47	42154	26.11	0
47	42304	26.21	0
47	42454	26.31	0
47	42604	26.41	0
47	42754	26.51	0
47	42904	26.61	0
47	43055	26.71	0
47	43205	26.81	0
47	43355	26.91	0
47	43509	27.01	0
47	43659	27.11	0
47	43809	27.21	0
47	43959	27.31	0
47	44109	27.41	0
47	44259	27.51	0
47	44409	27.61	0
47	44559	27.71	0
47	44709	27.81	0
47	44859	27.91	0
47	45013	28.01	0
47	45163	28.11	0
47	45313	28.21	0
47	45463	28.31	0
47	45613	28.41	0
47	45763	28.51	0
47	45913	28.61	0
47	46063	28.71	0
47	46213	28.81	0
47	46363	28.91	0
47	46517	29.01	0
47	46667	29.11	0
47	46817	29.21	0
47	46967	29.31	0
47	47117	29.41	0
47	47267	29.51	0
47	47417	29.61	0
47	47567	29.71	0
47	47717	29.81	0
47	47867	29.91	0
47	48021	30.01	0
47	48171	30.11	0
47	48321	30.21	0
47	48471	30.31	0
47	48621	30.41	0
47	48771	30.51	0
47	48921	30.61	0
47	49071	30.71	0
47	49221	30.81	0
47	49371	30.91	0
47	49525	31.01	0
47	49675	31.11	0
47	49825	31.21	0
47	49975	31.31	0
47	50125	31.41	0
47	50275	31.51	0
47	50425	31.61	0
47	50575	31.71	0
47	50725	31.81	0
47	50875	31.91	0
47	51029	32.01	0
47	51179	32.11	0
47	51329	32.21	0
47	51479	32.31	0
47	51629	32.41	0
47	51779	32.51	0
47	51929	32.61	0
47	52079	32.71	0
47	52229	32.81	0
47	52379	32.91	0
47	52533	33.01	0
47	52683	33.11	0
47	52833	33.21	0
47	52983	33.31	0
47	53133	33.41	0
47	53283	33.51	0
47	53433	33.61	0
47	53583	33.71	0
47	53733	33.81	0
47	53883	33.91	0
47	54037	34.01	0
47	54187	34.11	0
47	54337	34.21	0
47	54487	34.31	0
47	54637	34.41	0
47	54787	34.51	0
47	54937	34.61	0
47	55087	34.71	0
47	55237	34.81	0
51	26	0.21	1.6
51	176	0.31	1.6
51	326	0.41	1.6
51	476	0.51	1.6
51	626	0.61	1.6
51	776	0.71	1.6
51	926	0.81	1.6
51	1076	0.91	1.6
51	1230	1.01	1.6
51	1381	1.11	1.6
51	1532	1.21	1.6
51	1683	1.31	1.6
51	2046	1.41	1.6
51	2196	1.51	1.6
51	2346	1.61	1.6
51	2496	1.71	1.6
51	2646	1.81	1.6
51	2796	1.91	1.6
51	2950	2.01	1.6
51	3100	2.11	1.6
51	3250	2.21	1.6
51	3400	2.31	1.6
51	3763	2.41	1.6
51	3914	2.51	1.6
51	4064	2.61	1.6
51	4214	2.71	1.6
51	4364	2.81	1.6
51	4514	2.91	1.6
51	4668	3.01	1.6
51	4818	3.11	1.6
51	4968	3.21	1.6
51	5118	3.31	1.6
51	5269	3.41	1.6
51	5676	3.51	1.6
51	5826	3.61	1.6
51	5976	3.71	1.6
51	6126	3.81	1.6
51	6276	3.91	1.6
51	6430	4.01	1.6
51	6580	4.11	1.6
51	6730	4.21	1.6
51	6880	4.31	1.6
51	7030	4.41	1.6
51	7393	4.51	1.6
51	7544	4.61	1.6
51	7694	4.71	1.6
51	7844	4.81	1.6
51	7994	4.91	1.6
51	8148	5.01	1.6
51	8298	5.11	1.6
51	8448	5.21	1.6
51	8598	5.31	1.6
51	8748	5.41	1.6
51	8899	5.51	1.6
51	9262	5.61	1.6
51	9412	5.71	1.6
51	9562	5.81	1.6
51	9712	5.91	1.6
51	9866	6.01	1.6
51	10016	6.11	1.6
51	10166	6.21	1.6
51	10316	6.31	1.6
51	10466	6.41	1.6
51	10616	6.51	1.6
51	11023	6.61	1.6
51	11174	6.71	1.6
51	11324	6.81	1.6
51	11474	6.91	1.6
51	11628	7.01	1.6
51	11778	7.11	1.6
51	11928	7.21	1.6
51	12078	7.31	1.6
51	12228	7.41	1.6
51	12378	7.51	1.6
51	12529	7.61	1.6
51	12892	7.71	1.6
51	13042	7.81	1.6
51	13192	7.91	1.6
51	13346	8.01	1.6
51	13496	8.11	1.6
51	13646	8.21	1.6
51	13796	8.31	1.6
51	13946	8.41	1.6
51	14096	8.51	1.6
51	14246	8.61	1.6
51	14609	8.71	1.6
51	14760	8.81	1.6
51	14910	8.91	1.6
51	15064	9.01	1.6
51	15214	9.11	1.6
51	15364	9.21	1.6
51	15514	9.31	1.6
51	15664	9.41	1.6
51	15814	9.51	1.6
51	15964	9.61	1.6
51	16115	9.71	1.6
51	16522	9.81	1.6
51	16672	9.91	1.6
51	16826	10.01	1.6
51	16976	10.11	1.6
51	17126	10.21	1.6
51	17276	10.31	1.6
51	17426	10.41	1.6
51	17576	10.51	1.6
51	17726	10.61	1.6
51	17876	10.71	1.6
51	18239	10.81	1.6
51	18390	10.91	1.6
51	18544	11.01	1.6
51	18694	11.11	1.6
51	18844	11.21	1.6
51	18994	11.31	1.6
51	19144	11.41	1.6
51	19294	11.51	1.6
51	19444	11.61	1.6
51	19594	11.71	1.6
51	19745	11.81	1.6
51	20108	11.91	1.6
51	20262	12.01	1.6
51	20412	12.11	1.6
51	20562	12.21	1.6
51	20712	12.31	1.6
51	20862	12.41	1.6
51	21012	12.51	1.6
51	21162	12.61	1.6
51	21312	12.71	1.6
51	21462	12.81	1.6
51	21869	12.91	1.6
51	22024	13.01	1.6
51	22174	13.11	1.6
51	22324	13.21	1.6
51	22474	13.31	1.6
51	22624	13.41	1.6
51	22774	13.51	1.6
51	22924	13.61	1.6
51	23074	13.71	1.6
51	23224	13.81	1.6
51	23375	13.91	1.6
51	23742	14.01	1.6
51	23892	14.11	1.6
51	24042	14.21	1.6
51	24192	14.31	1.6
51	24342	14.41	1.6
51	24492	14.51	1.6
51	24642	14.61	1.6
51	24792	14.71	1.6
51	24942	14.81	1.6
51	25092	14.91	1.6
51	25459	15.01	1.6
51	25610	15.11	1.6
51	25760	15.21	1.6
51	25910	15.31	1.6
51	26060	15.41	1.6
51	26210	15.51	1.6
51	26360	15.61	1.6
51	26510	15.71	1.6
51	26660	15.81	1.6
51	26810	15.91	1.6
51	26964	16.01	1.6
51	27114	16.11	1.6
51	27264	16.21	1.6
51	27414	16.31	1.6
51	27564	16.41	1.6
51	27714	16.51	1.6
51	27864	16.61	1.6
51	28014	16.71	1.6
51	28164	16.81	1.6
51	28314	16.91	1.6
51	28468	17.01	1.6
51	28618	17.11	1.6
51	28768	17.21	1.6
51	28918	17.31	1.6
51	29068	17.41	1.6
51	29218	17.51	1.6
51	29368	17.61	1.6
51	29518	17.71	1.6
51	29668	17.81	1.6
51	29818	17.91	1.6
51	29972	18.01	1.6
51	30122	18.11	1.6
51	30272	18.21	1.6
51	30422	18.31	1.6
51	30572	18.41	1.6
51	30722	18.51	1.6
51	30872	18.61	1.6
51	31022	18.71	1.6
51	31172	18.81	1.6
51	31322	18.91	1.6
51	31476	19.01	1.6
51	31626	19.11	1.6
51	31776	19.21	1.6
51	31926	19.31	1.6
51	32076	19.41	1.6
51	32226	19.51	1.6
51	32376	19.61	1.6
51	32526	19.71	1.6
51	32676	19.81	1.6
51	32826	19.91	1.6
51	32980	20.01	1.6
51	33130	20.11	1.6
51	33280	20.21	1.6
51	33430	20.31	1.6
51	33580	20.41	1.6
51	33730	20.51	1.6
51	33880	20.61	1.6
51	34030	20.71	1.6
51	34180	20.81	1.6
51	34330	20.91	1.6
51	34484	21.01	1.6
51	34634	21.11	1.6
51	34784	21.21	1.6
51	34934	21.31	1.6
51	35084	21.41	1.6
51	35234	21.51	1.6
51	35384	21.61	1.6
51	35534	21.71	1.6
51	35684	21.81	1.6
51	35834	21.91	1.6
51	35988	22.01	1.6
51	36138	22.11	1.6
51	36288	22.21	1.6
51	36438	22.31	1.6
51	36588	22.41	1.6
51	36738	22.51	1.6
51	36888	22.61	1.6
51	37038	22.71	1.6
51	37188	22.81	1.6
51	37338	22.91	1.6
51	37492	23.01	1.6
51	37642	23.11	1.6
51	37792	23.21	1.6
51	37942	23.31	1.6
51	38092	23.41	1.6
51	38242	23.51	1.6
51	38392	23.61	1.6
51	38542	23.71	1.6
51	38692	23.81	1.6
51	38842	23.91	1.6
51	38996	24.01	1.6
51	39146	24.11	1.6
51	39296	24.21	1.6
51	39446	24.31	1.6
51	39596	24.41	1.6
51	39746	24.51	1.6
51	39896	24.61	1.6
51	40046	24.71	1.6
51	40196	24.81	1.6
51	40346	24.91	1.6
51	40500	25.01	1.6
51	40650	25.11	1.6
51	40800	25.21	1.6
51	40950	25.31	1.6
51	41100	25.41	1.6
51	41250	25.51	1.6
51	41400	25.61	1.6
51	41550	25.71	1.6
51	41700	25.81	1.6
51	41850	25.91	1.6
51	42004	26.01	1.6
51	42154	26.11	1.6
51	42304	26.21	1.6
51	42454	26.31	1.6
51	42604	26.41	1.6
51	42754	26.51	1.6
51	42904	26.61	1.6
51	43055	26.71	1.6
51	43205	26.81	1.6
51	43355	26.91	1.6
51	43509	27.01	1.6
51	43659	27.11	1.6
51	43809	27.21	1.6
51	43959	27.31	1.6
51	44109	27.41	1.6
51	44259	27.51	1.6
51	44409	27.61	1.6
51	44559	27.71	1.6
51	44709	27.81	1.6
51	44859	27.91	1.6
51	45013	28.01	1.6
51	45163	28.11	1.6
51	45313	28.21	1.6
51	45463	28.31	1.6
51	45613	28.41	1.6
51	45763	28.51	1.6
51	45913	28.61	1.6
51	46063	28.71	1.6
51	46213	28.81	1.6
51	46363	28.91	1.6
51	46517	29.01	1.6
51	46667	29.11	1.6
51	46817	29.21	1.6
51	46967	29.31	1.6
51	47117	29.41	1.6
51	47267	29.51	1.6
51	47417	29.61	1.6
51	47567	29.71	1.6
51	47717	29.81	1.6
51	47867	29.91	1.6
51	48021	30.01	1.6
51	48171	30.11	1.6
51	48321	30.21	1.6
51	48471	30.31	1.6
51	48621	30.41	1.6
51	48771	30.51	1.6
51	48921	30.61	1.6
51	49071	30.71	1.6
51	49221	30.81	1.6
51	49371	30.91	1.6
51	49525	31.01	1.6
51	49675	31.11	1.6
51	49825	31.21	1.6
51	49975	31.31	1.6
51	50125	31.41	1.6
51	50275	31.51	1.6
51	50425	31.61	1.6
51	50575	31.71	1.6
51	50725	31.81	1.6
51	50875	31.91	1.6
51	51029	32.01	1.6
51	51179	32.11	1.6
51	51329	32.21	1.6
51	51479	32.31	1.6
51	51629	32.41	1.6
51	51779	32.51	1.6
51	51929	32.61	1.6
51	52079	32.71	1.6
51	52229	32.81	1.6
51	52379	32.91	1.6
51	52533	33.01	1.6
51	52683	33.11	1.6
51	52833	33.21	1.6
51	52983	33.31	1.6
51	53133	33.41	1.6
51	53283	33.51	1.6
51	53433	33.61	1.6
51	53583	33.71	1.6
51	53733	33.81	1.6
51	53883	33.91	1.6
51	54037	34.01	1.6
51	54187	34.11	1.6
51	54337	34.21	1.6
51	54487	34.31	1.6
51	54637	34.41	1.6
51	54787	34.51	1.6
51	54937	34.61	1.6
51	55087	34.71	1.6
51	55237	34.81	1.6
50	26	0.21	490.725
50	176	0.31	489.308
50	326	0.41	487.891
50	476	0.51	486.474
50	626	0.61	485.057
50	776	0.71	483.64
50	926	0.81	482.223
50	1076	0.91	480.806
50	1230	1.01	479.389
50	1381	1.11	477.972
50	1532	1.21	476.556
50	1683	1.31	475.139
50	2046	1.41	473.722
50	2196	1.51	472.305
50	2346	1.61	470.888
50	2496	1.71	469.472
50	2646	1.81	468.055
50	2796	1.91	466.638
50	2950	2.01	465.221
50	3100	2.11	463.805
50	3250	2.21	462.388
50	3400	2.31	460.971
50	3763	2.41	459.555
50	3914	2.51	458.138
50	4064	2.61	456.721
50	4214	2.71	455.305
50	4364	2.81	453.888
50	4514	2.91	452.471
50	4668	3.01	451.055
50	4818	3.11	449.638
50	4968	3.21	448.221
50	5118	3.31	446.805
50	5269	3.41	445.388
50	5676	3.51	443.971
50	5826	3.61	442.555
50	5976	3.71	441.138
50	6126	3.81	439.722
50	6276	3.91	438.305
50	6430	4.01	436.888
50	6580	4.11	435.472
50	6730	4.21	434.055
50	6880	4.31	432.638
50	7030	4.41	431.222
50	7393	4.51	429.805
50	7544	4.61	428.388
50	7694	4.71	426.972
50	7844	4.81	425.555
50	7994	4.91	424.138
50	8148	5.01	422.722
50	8298	5.11	421.305
50	8448	5.21	419.888
50	8598	5.31	418.472
50	8748	5.41	417.055
50	8899	5.51	415.638
50	9262	5.61	414.222
50	9412	5.71	412.805
50	9562	5.81	411.388
50	9712	5.91	409.972
50	9866	6.01	408.555
50	10016	6.11	407.138
50	10166	6.21	405.722
50	10316	6.31	404.305
50	10466	6.41	402.888
50	10616	6.51	401.472
50	11023	6.61	400.055
50	11174	6.71	398.638
50	11324	6.81	397.221
50	11474	6.91	395.805
50	11628	7.01	394.388
50	11778	7.11	392.971
50	11928	7.21	391.555
50	12078	7.31	390.138
50	12228	7.41	388.721
50	12378	7.51	387.305
50	12529	7.61	385.888
50	12892	7.71	384.471
50	13042	7.81	383.055
50	13192	7.91	381.638
50	13346	8.01	380.221
50	13496	8.11	378.805
50	13646	8.21	377.388
50	13796	8.31	375.971
50	13946	8.41	374.555
50	14096	8.51	373.138
50	14246	8.61	371.721
50	14609	8.71	370.305
50	14760	8.81	368.888
50	14910	8.91	367.471
50	15064	9.01	366.055
50	15214	9.11	364.638
50	15364	9.21	363.221
50	15514	9.31	361.805
50	15664	9.41	360.388
50	15814	9.51	358.971
50	15964	9.61	357.555
50	16115	9.71	356.138
50	16522	9.81	354.721
50	16672	9.91	353.305
50	16826	10.01	351.888
50	16976	10.11	350.471
50	17126	10.21	349.055
50	17276	10.31	347.638
50	17426	10.41	346.221
50	17576	10.51	344.805
50	17726	10.61	343.388
50	17876	10.71	341.971
50	18239	10.81	340.555
50	18390	10.91	339.138
50	18544	11.01	337.721
50	18694	11.11	336.305
50	18844	11.21	334.888
50	18994	11.31	333.471
50	19144	11.41	332.055
50	19294	11.51	330.638
50	19444	11.61	329.221
50	19594	11.71	327.805
50	19745	11.81	326.388
50	20108	11.91	324.971
50	20262	12.01	323.555
50	20412	12.11	322.138
50	20562	12.21	320.721
50	20712	12.31	319.305
50	20862	12.41	317.888
50	21012	12.51	316.471
50	21162	12.61	315.055
50	21312	12.71	313.638
50	21462	12.81	312.221
50	21869	12.91	310.805
50	22024	13.01	309.388
50	22174	13.11	307.971
50	22324	13.21	306.555
50	22474	13.31	305.138
50	22624	13.41	303.721
50	22774	13.51	302.305
50	22924	13.61	300.888
50	23074	13.71	299.471
50	23224	13.81	298.055
50	23375	13.91	296.638
50	23742	14.01	295.221
50	23892	14.11	293.805
50	24042	14.21	292.388
50	24192	14.31	290.971
50	24342	14.41	289.555
50	24492	14.51	288.138
50	24642	14.61	286.721
50	24792	14.71	285.305
50	24942	14.81	283.888
50	25092	14.91	282.471
50	25459	15.01	281.055
50	25610	15.11	279.638
50	25760	15.21	278.221
50	25910	15.31	276.805
50	26060	15.41	275.388
50	26210	15.51	273.971
50	26360	15.61	272.555
50	26510	15.71	271.138
50	26660	15.81	269.721
50	26810	15.91	268.305
50	26964	16.01	266.888
50	27114	16.11	265.471
50	27264	16.21	264.055
50	27414	16.31	262.638
50	27564	16.41	261.221
50	27714	16.51	259.805
50	27864	16.61	258.388
50	28014	16.71	256.971
50	28164	16.81	255.554
50	28314	16.91	254.138
50	28468	17.01	252.721
50	28618	17.11	251.304
50	28768	17.21	249.888
50	28918	17.31	248.471
50	29068	17.41	247.054
50	29218	17.51	245.638
50	29368	17.61	244.221
50	29518	17.71	242.804
50	29668	17.81	241.388
50	29818	17.91	239.971
50	29972	18.01	238.554
50	30122	18.11	237.138
50	30272	18.21	235.721
50	30422	18.31	234.304
50	30572	18.41	232.888
50	30722	18.51	231.471
50	30872	18.61	230.054
50	31022	18.71	228.638
50	31172	18.81	227.221
50	31322	18.91	225.804
50	31476	19.01	224.388
50	31626	19.11	222.971
50	31776	19.21	221.554
50	31926	19.31	220.138
50	32076	19.41	218.721
50	32226	19.51	217.304
50	32376	19.61	215.888
50	32526	19.71	214.471
50	32676	19.81	213.054
50	32826	19.91	211.638
50	32980	20.01	210.221
50	33130	20.11	208.804
50	33280	20.21	207.388
50	33430	20.31	205.971
50	33580	20.41	204.554
50	33730	20.51	203.138
50	33880	20.61	201.721
50	34030	20.71	200.304
50	34180	20.81	198.888
50	34330	20.91	197.471
50	34484	21.01	196.054
50	34634	21.11	194.638
50	34784	21.21	193.221
50	34934	21.31	191.804
50	35084	21.41	190.388
50	35234	21.51	188.971
50	35384	21.61	187.554
50	35534	21.71	186.138
50	35684	21.81	184.721
50	35834	21.91	183.304
50	35988	22.01	181.888
50	36138	22.11	180.471
50	36288	22.21	179.054
50	36438	22.31	177.638
50	36588	22.41	176.221
50	36738	22.51	174.804
50	36888	22.61	173.388
50	37038	22.71	171.971
50	37188	22.81	170.554
50	37338	22.91	169.138
50	37492	23.01	167.721
50	37642	23.11	166.304
50	37792	23.21	164.888
50	37942	23.31	163.471
50	38092	23.41	162.054
50	38242	23.51	160.638
50	38392	23.61	159.221
50	38542	23.71	157.804
50	38692	23.81	156.388
50	38842	23.91	154.971
50	38996	24.01	153.554
50	39146	24.11	152.138
50	39296	24.21	150.721
50	39446	24.31	149.304
50	39596	24.41	147.888
50	39746	24.51	146.471
50	39896	24.61	145.054
50	40046	24.71	143.638
50	40196	24.81	142.221
50	40346	24.91	140.804
50	40500	25.01	139.388
50	40650	25.11	137.971
50	40800	25.21	136.554
50	40950	25.31	135.138
50	41100	25.41	133.721
50	41250	25.51	132.304
50	41400	25.61	130.888
50	41550	25.71	129.471
50	41700	25.81	128.054
50	41850	25.91	126.638
50	42004	26.01	125.221
50	42154	26.11	123.804
50	42304	26.21	122.388
50	42454	26.31	120.971
50	42604	26.41	119.554
50	42754	26.51	118.138
50	42904	26.61	116.721
50	43055	26.71	115.304
50	43205	26.81	113.887
50	43355	26.91	112.471
50	43509	27.01	111.054
50	43659	27.11	109.637
50	43809	27.21	108.221
50	43959	27.31	106.804
50	44109	27.41	105.387
50	44259	27.51	103.971
50	44409	27.61	102.554
50	44559	27.71	101.137
50	44709	27.81	99.7208
50	44859	27.91	98.3041
50	45013	28.01	96.8875
50	45163	28.11	95.4708
50	45313	28.21	94.0541
50	45463	28.31	92.6374
50	45613	28.41	91.2208
50	45763	28.51	89.8041
50	45913	28.61	88.3874
50	46063	28.71	86.9708
50	46213	28.81	85.5541
50	46363	28.91	84.1374
50	46517	29.01	82.7208
50	46667	29.11	81.3041
50	46817	29.21	79.8874
50	46967	29.31	78.4707
50	47117	29.41	77.0541
50	47267	29.51	75.6374
50	47417	29.61	74.2207
50	47567	29.71	72.8041
50	47717	29.81	71.3874
50	47867	29.91	69.9707
50	48021	30.01	68.5541
50	48171	30.11	67.1374
50	48321	30.21	65.7207
50	48471	30.31	64.304
50	48621	30.41	62.8874
50	48771	30.51	61.4707
50	48921	30.61	60.054
50	49071	30.71	58.6374
50	49221	30.81	57.2207
50	49371	30.91	55.804
50	49525	31.01	54.3874
50	49675	31.11	52.9707
50	49825	31.21	51.554
50	49975	31.31	50.1373
50	50125	31.41	48.7207
50	50275	31.51	47.304
50	50425	31.61	45.8873
50	50575	31.71	44.4707
50	50725	31.81	43.054
50	50875	31.91	41.6373
50	51029	32.01	40.2207
50	51179	32.11	38.804
50	51329	32.21	37.3873
50	51479	32.31	35.9706
50	51629	32.41	34.554
50	51779	32.51	33.1373
50	51929	32.61	31.7206
50	52079	32.71	30.304
50	52229	32.81	28.8873
50	52379	32.91	27.4706
50	52533	33.01	26.054
50	52683	33.11	24.6373
50	52833	33.21	23.2206
50	52983	33.31	21.8039
50	53133	33.41	20.3873
50	53283	33.51	18.9706
50	53433	33.61	17.5539
50	53583	33.71	16.1373
50	53733	33.81	14.7206
50	53883	33.91	13.3039
50	54037	34.01	11.8873
50	54187	34.11	10.4706
50	54337	34.21	9.05391
50	54487	34.31	7.63724
50	54637	34.41	6.22057
50	54787	34.51	4.8039
50	54937	34.61	3.38723
50	55087	34.71	1.97056
50	55237	34.81	0.553894
49	26	0.21	14.17
49	176	0.31	14.1699
49	326	0.41	14.1698
49	476	0.51	14.1696
49	626	0.61	14.1694
49	776	0.71	14.1692
49	926	0.81	14.169
49	1076	0.91	14.1688
49	1230	1.01	14.1686
49	1381	1.11	14.1684
49	1532	1.21	14.1682
49	1683	1.31	14.168
49	2046	1.41	14.1678
49	2196	1.51	14.1677
49	2346	1.61	14.1675
49	2496	1.71	14.1674
49	2646	1.81	14.1672
49	2796	1.91	14.1671
49	2950	2.01	14.167
49	3100	2.11	14.1669
49	3250	2.21	14.1668
49	3400	2.31	14.1668
49	3763	2.41	14.1667
49	3914	2.51	14.1667
49	4064	2.61	14.1666
49	4214	2.71	14.1666
49	4364	2.81	14.1666
49	4514	2.91	14.1666
49	4668	3.01	14.1666
49	4818	3.11	14.1666
49	4968	3.21	14.1666
49	5118	3.31	14.1666
49	5269	3.41	14.1666
49	5676	3.51	14.1666
49	5826	3.61	14.1666
49	5976	3.71	14.1666
49	6126	3.81	14.1666
49	6276	3.91	14.1666
49	6430	4.01	14.1666
49	6580	4.11	14.1666
49	6730	4.21	14.1666
49	6880	4.31	14.1666
49	7030	4.41	14.1666
49	7393	4.51	14.1666
49	7544	4.61	14.1667
49	7694	4.71	14.1667
49	7844	4.81	14.1667
49	7994	4.91	14.1667
49	8148	5.01	14.1667
49	8298	5.11	14.1667
49	8448	5.21	14.1667
49	8598	5.31	14.1667
49	8748	5.41	14.1667
49	8899	5.51	14.1667
49	9262	5.61	14.1667
49	9412	5.71	14.1667
49	9562	5.81	14.1667
49	9712	5.91	14.1667
49	9866	6.01	14.1667
49	10016	6.11	14.1667
49	10166	6.21	14.1667
49	10316	6.31	14.1667
49	10466	6.41	14.1667
49	10616	6.51	14.1667
49	11023	6.61	14.1667
49	11174	6.71	14.1667
49	11324	6.81	14.1667
49	11474	6.91	14.1667
49	11628	7.01	14.1667
49	11778	7.11	14.1667
49	11928	7.21	14.1667
49	12078	7.31	14.1667
49	12228	7.41	14.1667
49	12378	7.51	14.1667
49	12529	7.61	14.1667
49	12892	7.71	14.1667
49	13042	7.81	14.1667
49	13192	7.91	14.1667
49	13346	8.01	14.1667
49	13496	8.11	14.1667
49	13646	8.21	14.1667
49	13796	8.31	14.1667
49	13946	8.41	14.1667
49	14096	8.51	14.1667
49	14246	8.61	14.1667
49	14609	8.71	14.1667
49	14760	8.81	14.1667
49	14910	8.91	14.1667
49	15064	9.01	14.1667
49	15214	9.11	14.1667
49	15364	9.21	14.1667
49	15514	9.31	14.1667
49	15664	9.41	14.1667
49	15814	9.51	14.1667
49	15964	9.61	14.1667
49	16115	9.71	14.1667
49	16522	9.81	14.1667
49	16672	9.91	14.1667
49	16826	10.01	14.1667
49	16976	10.11	14.1667
49	17126	10.21	14.1667
49	17276	10.31	14.1667
49	17426	10.41	14.1667
49	17576	10.51	14.1667
49	17726	10.61	14.1667
49	17876	10.71	14.1667
49	18239	10.81	14.1667
49	18390	10.91	14.1667
49	18544	11.01	14.1667
49	18694	11.11	14.1667
49	18844	11.21	14.1667
49	18994	11.31	14.1667
49	19144	11.41	14.1667
49	19294	11.51	14.1667
49	19444	11.61	14.1667
49	19594	11.71	14.1667
49	19745	11.81	14.1667
49	20108	11.91	14.1667
49	20262	12.01	14.1667
49	20412	12.11	14.1667
49	20562	12.21	14.1667
49	20712	12.31	14.1667
49	20862	12.41	14.1667
49	21012	12.51	14.1667
49	21162	12.61	14.1667
49	21312	12.71	14.1667
49	21462	12.81	14.1667
49	21869	12.91	14.1667
49	22024	13.01	14.1667
49	22174	13.11	14.1667
49	22324	13.21	14.1667
49	22474	13.31	14.1667
49	22624	13.41	14.1667
49	22774	13.51	14.1667
49	22924	13.61	14.1667
49	23074	13.71	14.1667
49	23224	13.81	14.1667
49	23375	13.91	14.1667
49	23742	14.01	14.1667
49	23892	14.11	14.1667
49	24042	14.21	14.1667
49	24192	14.31	14.1667
49	24342	14.41	14.1667
49	24492	14.51	14.1667
49	24642	14.61	14.1667
49	24792	14.71	14.1667
49	24942	14.81	14.1667
49	25092	14.91	14.1667
49	25459	15.01	14.1667
49	25610	15.11	14.1667
49	25760	15.21	14.1667
49	25910	15.31	14.1667
49	26060	15.41	14.1667
49	26210	15.51	14.1667
49	26360	15.61	14.1667
49	26510	15.71	14.1667
49	26660	15.81	14.1667
49	26810	15.91	14.1667
49	26964	16.01	14.1667
49	27114	16.11	14.1667
49	27264	16.21	14.1667
49	27414	16.31	14.1667
49	27564	16.41	14.1667
49	27714	16.51	14.1667
49	27864	16.61	14.1667
49	28014	16.71	14.1667
49	28164	16.81	14.1667
49	28314	16.91	14.1667
49	28468	17.01	14.1667
49	28618	17.11	14.1667
49	28768	17.21	14.1667
49	28918	17.31	14.1667
49	29068	17.41	14.1667
49	29218	17.51	14.1667
49	29368	17.61	14.1667
49	29518	17.71	14.1667
49	29668	17.81	14.1667
49	29818	17.91	14.1667
49	29972	18.01	14.1667
49	30122	18.11	14.1667
49	30272	18.21	14.1667
49	30422	18.31	14.1667
49	30572	18.41	14.1667
49	30722	18.51	14.1667
49	30872	18.61	14.1667
49	31022	18.71	14.1667
49	31172	18.81	14.1667
49	31322	18.91	14.1667
49	31476	19.01	14.1667
49	31626	19.11	14.1667
49	31776	19.21	14.1667
49	31926	19.31	14.1667
49	32076	19.41	14.1667
49	32226	19.51	14.1667
49	32376	19.61	14.1667
49	32526	19.71	14.1667
49	32676	19.81	14.1667
49	32826	19.91	14.1667
49	32980	20.01	14.1667
49	33130	20.11	14.1667
49	33280	20.21	14.1667
49	33430	20.31	14.1667
49	33580	20.41	14.1667
49	33730	20.51	14.1667
49	33880	20.61	14.1667
49	34030	20.71	14.1667
49	34180	20.81	14.1667
49	34330	20.91	14.1667
49	34484	21.01	14.1667
49	34634	21.11	14.1667
49	34784	21.21	14.1667
49	34934	21.31	14.1667
49	35084	21.41	14.1667
49	35234	21.51	14.1667
49	35384	21.61	14.1667
49	35534	21.71	14.1667
49	35684	21.81	14.1667
49	35834	21.91	14.1667
49	35988	22.01	14.1667
49	36138	22.11	14.1667
49	36288	22.21	14.1667
49	36438	22.31	14.1667
49	36588	22.41	14.1667
49	36738	22.51	14.1667
49	36888	22.61	14.1667
49	37038	22.71	14.1667
49	37188	22.81	14.1667
49	37338	22.91	14.1667
49	37492	23.01	14.1667
49	37642	23.11	14.1667
49	37792	23.21	14.1667
49	37942	23.31	14.1667
49	38092	23.41	14.1667
49	38242	23.51	14.1667
49	38392	23.61	14.1667
49	38542	23.71	14.1667
49	38692	23.81	14.1667
49	38842	23.91	14.1667
49	38996	24.01	14.1667
49	39146	24.11	14.1667
49	39296	24.21	14.1667
49	39446	24.31	14.1667
49	39596	24.41	14.1667
49	39746	24.51	14.1667
49	39896	24.61	14.1667
49	40046	24.71	14.1667
49	40196	24.81	14.1667
49	40346	24.91	14.1667
49	40500	25.01	14.1667
49	40650	25.11	14.1667
49	40800	25.21	14.1667
49	40950	25.31	14.1667
49	41100	25.41	14.1667
49	41250	25.51	14.1667
49	41400	25.61	14.1667
49	41550	25.71	14.1667
49	41700	25.81	14.1667
49	41850	25.91	14.1667
49	42004	26.01	14.1667
49	42154	26.11	14.1667
49	42304	26.21	14.1667
49	42454	26.31	14.1667
49	42604	26.41	14.1667
49	42754	26.51	14.1667
49	42904	26.61	14.1667
49	43055	26.71	14.1667
49	43205	26.81	14.1667
49	43355	26.91	14.1667
49	43509	27.01	14.1667
49	43659	27.11	14.1667
49	43809	27.21	14.1667
49	43959	27.31	14.1667
49	44109	27.41	14.1667
49	44259	27.51	14.1667
49	44409	27.61	14.1667
49	44559	27.71	14.1667
49	44709	27.81	14.1667
49	44859	27.91	14.1667
49	45013	28.01	14.1667
49	45163	28.11	14.1667
49	45313	28.21	14.1667
49	45463	28.31	14.1667
49	45613	28.41	14.1667
49	45763	28.51	14.1667
49	45913	28.61	14.1667
49	46063	28.71	14.1667
49	46213	28.81	14.1667
49	46363	28.91	14.1667
49	46517	29.01	14.1667
49	46667	29.11	14.1667
49	46817	29.21	14.1667
49	46967	29.31	14.1667
49	47117	29.41	14.1667
49	47267	29.51	14.1667
49	47417	29.61	14.1667
49	47567	29.71	14.1667
49	47717	29.81	14.1667
49	47867	29.91	14.1667
49	48021	30.01	14.1667
49	48171	30.11	14.1667
49	48321	30.21	14.1667
49	48471	30.31	14.1667
49	48621	30.41	14.1667
49	48771	30.51	14.1667
49	48921	30.61	14.1667
49	49071	30.71	14.1667
49	49221	30.81	14.1667
49	49371	30.91	14.1667
49	49525	31.01	14.1667
49	49675	31.11	14.1667
49	49825	31.21	14.1667
49	49975	31.31	14.1667
49	50125	31.41	14.1667
49	50275	31.51	14.1667
49	50425	31.61	14.1667
49	50575	31.71	14.1667
49	50725	31.81	14.1667
49	50875	31.91	14.1667
49	51029	32.01	14.1667
49	51179	32.11	14.1667
49	51329	32.21	14.1667
49	51479	32.31	14.1667
49	51629	32.41	14.1667
49	51779	32.51	14.1667
49	51929	32.61	14.1667
49	52079	32.71	14.1667
49	52229	32.81	14.1667
49	52379	32.91	14.1667
49	52533	33.01	14.1667
49	52683	33.11	14.1667
49	52833	33.21	14.1667
49	52983	33.31	14.1667
49	53133	33.41	14.1667
49	53283	33.51	14.1667
49	53433	33.61	14.1667
49	53583	33.71	14.1667
49	53733	33.81	14.1667
49	53883	33.91	14.1667
49	54037	34.01	14.1667
49	54187	34.11	14.1667
49	54337	34.21	14.1667
49	54487	34.31	14.1667
49	54637	34.41	14.1667
49	54787	34.51	14.1667
49	54937	34.61	14.1667
49	55087	34.71	14.1667
49	55237	34.81	14.1667
45	26	0.21	0
45	176	0.31	0
45	326	0.41	0
45	476	0.51	0
45	626	0.61	0
45	776	0.71	0
45	926	0.81	0
45	1076	0.91	0
45	1230	1.01	0
45	1381	1.11	0
45	1532	1.21	0
45	1683	1.31	0
45	2046	1.41	0
45	2196	1.51	0
45	2346	1.61	0
45	2496	1.71	0
45	2646	1.81	0
45	2796	1.91	0
45	2950	2.01	0
45	3100	2.11	0
45	3250	2.21	0
45	3400	2.31	0
45	3763	2.41	0
45	3914	2.51	0
45	4064	2.61	0
45	4214	2.71	0
45	4364	2.81	0
45	4514	2.91	0
45	4668	3.01	0
45	4818	3.11	0
45	4968	3.21	0
45	5118	3.31	0
45	5269	3.41	0
45	5676	3.51	0
45	5826	3.61	0
45	5976	3.71	0
45	6126	3.81	0
45	6276	3.91	0
45	6430	4.01	0
45	6580	4.11	0
45	6730	4.21	0
45	6880	4.31	0
45	7030	4.41	0
45	7393	4.51	0
45	7544	4.61	0
45	7694	4.71	0
45	7844	4.81	0
45	7994	4.91	0
45	8148	5.01	0
45	8298	5.11	0
45	8448	5.21	0
45	8598	5.31	0
45	8748	5.41	0
45	8899	5.51	0
45	9262	5.61	0
45	9412	5.71	0
45	9562	5.81	0
45	9712	5.91	0
45	9866	6.01	0
45	10016	6.11	0
45	10166	6.21	0
45	10316	6.31	0
45	10466	6.41	0
45	10616	6.51	0
45	11023	6.61	0
45	11174	6.71	0
45	11324	6.81	0
45	11474	6.91	0
45	11628	7.01	0
45	11778	7.11	0
45	11928	7.21	0
45	12078	7.31	0
45	12228	7.41	0
45	12378	7.51	0
45	12529	7.61	0
45	12892	7.71	0
45	13042	7.81	0
45	13192	7.91	0
45	13346	8.01	0
45	13496	8.11	0
45	13646	8.21	0
45	13796	8.31	0
45	13946	8.41	0
45	14096	8.51	0
45	14246	8.61	0
45	14609	8.71	0
45	14760	8.81	0
45	14910	8.91	0
45	15064	9.01	0
45	15214	9.11	0
45	15364	9.21	0
45	15514	9.31	0
45	15664	9.41	0
45	15814	9.51	0
45	15964	9.61	0
45	16115	9.71	0
45	16522	9.81	0
45	16672	9.91	0
45	16826	10.01	0
45	16976	10.11	0
45	17126	10.21	0
45	17276	10.31	0
45	17426	10.41	0
45	17576	10.51	0
45	17726	10.61	0
45	17876	10.71	0
45	18239	10.81	0
45	18390	10.91	0
45	18544	11.01	0
45	18694	11.11	0
45	18844	11.21	0
45	18994	11.31	0
45	19144	11.41	0
45	19294	11.51	0
45	19444	11.61	0
45	19594	11.71	0
45	19745	11.81	0
45	20108	11.91	0
45	20262	12.01	0
45	20412	12.11	0
45	20562	12.21	0
45	20712	12.31	0
45	20862	12.41	0
45	21012	12.51	0
45	21162	12.61	0
45	21312	12.71	0
45	21462	12.81	0
45	21869	12.91	0
45	22024	13.01	0
45	22174	13.11	0
45	22324	13.21	0
45	22474	13.31	0
45	22624	13.41	0
45	22774	13.51	0
45	22924	13.61	0
45	23074	13.71	0
45	23224	13.81	0
45	23375	13.91	0
45	23742	14.01	0
45	23892	14.11	0
45	24042	14.21	0
45	24192	14.31	0
45	24342	14.41	0
45	24492	14.51	0
45	24642	14.61	0
45	24792	14.71	0
45	24942	14.81	0
45	25092	14.91	0
45	25459	15.01	0
45	25610	15.11	0
45	25760	15.21	0
45	25910	15.31	0
45	26060	15.41	0
45	26210	15.51	0
45	26360	15.61	0
45	26510	15.71	0
45	26660	15.81	0
45	26810	15.91	0
45	26964	16.01	0
45	27114	16.11	0
45	27264	16.21	0
45	27414	16.31	0
45	27564	16.41	0
45	27714	16.51	0
45	27864	16.61	0
45	28014	16.71	0
45	28164	16.81	0
45	28314	16.91	0
45	28468	17.01	0
45	28618	17.11	0
45	28768	17.21	0
45	28918	17.31	0
45	29068	17.41	0
45	29218	17.51	0
45	29368	17.61	0
45	29518	17.71	0
45	29668	17.81	0
45	29818	17.91	0
45	29972	18.01	0
45	30122	18.11	0
45	30272	18.21	0
45	30422	18.31	0
45	30572	18.41	0
45	30722	18.51	0
45	30872	18.61	0
45	31022	18.71	0
45	31172	18.81	0
45	31322	18.91	0
45	31476	19.01	0
45	31626	19.11	0
45	31776	19.21	0
45	31926	19.31	0
45	32076	19.41	0
45	32226	19.51	0
45	32376	19.61	0
45	32526	19.71	0
45	32676	19.81	0
45	32826	19.91	0
45	32980	20.01	0
45	33130	20.11	0
45	33280	20.21	0
45	33430	20.31	0
45	33580	20.41	0
45	33730	20.51	0
45	33880	20.61	0
45	34030	20.71	0
45	34180	20.81	0
45	34330	20.91	0
45	34484	21.01	0
45	34634	21.11	0
45	34784	21.21	0
45	34934	21.31	0
45	35084	21.41	0
45	35234	21.51	0
45	35384	21.61	0
45	35534	21.71	0
45	35684	21.81	0
45	35834	21.91	0
45	35988	22.01	0
45	36138	22.11	0
45	36288	22.21	0
45	36438	22.31	0
45	36588	22.41	0
45	36738	22.51	0
45	36888	22.61	0
45	37038	22.71	0
45	37188	22.81	0
45	37338	22.91	0
45	37492	23.01	0
45	37642	23.11	0
45	37792	23.21	0
45	37942	23.31	0
45	38092	23.41	0
45	38242	23.51	0
45	38392	23.61	0
45	38542	23.71	0
45	38692	23.81	0
45	38842	23.91	0
45	38996	24.01	0
45	39146	24.11	0
45	39296	24.21	0
45	39446	24.31	0
45	39596	24.41	0
45	39746	24.51	0
45	39896	24.61	0
45	40046	24.71	0
45	40196	24.81	0
45	40346	24.91	0
45	40500	25.01	0
45	40650	25.11	0
45	40800	25.21	0
45	40950	25.31	0
45	41100	25.41	0
45	41250	25.51	0
45	41400	25.61	0
45	41550	25.71	0
45	41700	25.81	0
45	41850	25.91	0
45	42004	26.01	0
45	42154	26.11	0
45	42304	26.21	0
45	42454	26.31	0
45	42604	26.41	0
45	42754	26.51	0
45	42904	26.61	0
45	43055	26.71	0
45	43205	26.81	0
45	43355	26.91	0
45	43509	27.01	0
45	43659	27.11	0
45	43809	27.21	0
45	43959	27.31	0
45	44109	27.41	0
45	44259	27.51	0
45	44409	27.61	0
45	44559	27.71	0
45	44709	27.81	0
45	44859	27.91	0
45	45013	28.01	0
45	45163	28.11	0
45	45313	28.21	0
45	45463	28.31	0
45	45613	28.41	0
45	45763	28.51	0
45	45913	28.61	0
45	46063	28.71	0
45	46213	28.81	0
45	46363	28.91	0
45	46517	29.01	0
45	46667	29.11	0
45	46817	29.21	0
45	46967	29.31	0
45	47117	29.41	0
45	47267	29.51	0
45	47417	29.61	0
45	47567	29.71	0
45	47717	29.81	0
45	47867	29.91	0
45	48021	30.01	0
45	48171	30.11	0
45	48321	30.21	0
45	48471	30.31	0
45	48621	30.41	0
45	48771	30.51	0
45	48921	30.61	0
45	49071	30.71	0
45	49221	30.81	0
45	49371	30.91	0
45	49525	31.01	0
45	49675	31.11	0
45	49825	31.21	0
45	49975	31.31	0
45	50125	31.41	0
45	50275	31.51	0
45	50425	31.61	0
45	50575	31.71	0
45	50725	31.81	0
45	50875	31.91	0
45	51029	32.01	0
45	51179	32.11	0
45	51329	32.21	0
45	51479	32.31	0
45	51629	32.41	0
45	51779	32.51	0
45	51929	32.61	0
45	52079	32.71	0
45	52229	32.81	0
45	52379	32.91	0
45	52533	33.01	0
45	52683	33.11	0
45	52833	33.21	0
45	52983	33.31	0
45	53133	33.41	0
45	53283	33.51	0
45	53433	33.61	0
45	53583	33.71	0
45	53733	33.81	0
45	53883	33.91	0
45	54037	34.01	0
45	54187	34.11	0
45	54337	34.21	0
45	54487	34.31	0
45	54637	34.41	0
45	54787	34.51	0
45	54937	34.61	0
45	55087	34.71	0
45	55237	34.81	0
44	26	0.21	-1
44	176	0.31	-1
44	326	0.41	-1
44	476	0.51	-1
44	626	0.61	-1
44	776	0.71	-1
44	926	0.81	-1
44	1076	0.91	-1
44	1230	1.01	-1
44	1381	1.11	-1
44	1532	1.21	-1
44	1683	1.31	-1
44	2046	1.41	-1
44	2196	1.51	-1
44	2346	1.61	-1
44	2496	1.71	-1
44	2646	1.81	-1
44	2796	1.91	-1
44	2950	2.01	-1
44	3100	2.11	-1
44	3250	2.21	-1
44	3400	2.31	-1
44	3763	2.41	-1
44	3914	2.51	-1
44	4064	2.61	-1
44	4214	2.71	-1
44	4364	2.81	-1
44	4514	2.91	-1
44	4668	3.01	-1
44	4818	3.11	-1
44	4968	3.21	-1
44	5118	3.31	-1
44	5269	3.41	-1
44	5676	3.51	-1
44	5826	3.61	-1
44	5976	3.71	-1
44	6126	3.81	-1
44	6276	3.91	-1
44	6430	4.01	-1
44	6580	4.11	-1
44	6730	4.21	-1
44	6880	4.31	-1
44	7030	4.41	-1
44	7393	4.51	-1
44	7544	4.61	-1
44	7694	4.71	-1
44	7844	4.81	-1
44	7994	4.91	-1
44	8148	5.01	-1
44	8298	5.11	-1
44	8448	5.21	-1
44	8598	5.31	-1
44	8748	5.41	-1
44	8899	5.51	-1
44	9262	5.61	-1
44	9412	5.71	-1
44	9562	5.81	-1
44	9712	5.91	-1
44	9866	6.01	-1
44	10016	6.11	-1
44	10166	6.21	-1
44	10316	6.31	-1
44	10466	6.41	-1
44	10616	6.51	-1
44	11023	6.61	-1
44	11174	6.71	-1
44	11324	6.81	-1
44	11474	6.91	-1
44	11628	7.01	-1
44	11778	7.11	-1
44	11928	7.21	-1
44	12078	7.31	-1
44	12228	7.41	-1
44	12378	7.51	-1
44	12529	7.61	-1
44	12892	7.71	-1
44	13042	7.81	-1
44	13192	7.91	-1
44	13346	8.01	-1
44	13496	8.11	-1
44	13646	8.21	-1
44	13796	8.31	-1
44	13946	8.41	-1
44	14096	8.51	-1
44	14246	8.61	-1
44	14609	8.71	-1
44	14760	8.81	-1
44	14910	8.91	-1
44	15064	9.01	-1
44	15214	9.11	-1
44	15364	9.21	-1
44	15514	9.31	-1
44	15664	9.41	-1
44	15814	9.51	-1
44	15964	9.61	-1
44	16115	9.71	-1
44	16522	9.81	-1
44	16672	9.91	-1
44	16826	10.01	-1
44	16976	10.11	-1
44	17126	10.21	-1
44	17276	10.31	-1
44	17426	10.41	-1
44	17576	10.51	-1
44	17726	10.61	-1
44	17876	10.71	-1
44	18239	10.81	-1
44	18390	10.91	-1
44	18544	11.01	-1
44	18694	11.11	-1
44	18844	11.21	-1
44	18994	11.31	-1
44	19144	11.41	-1
44	19294	11.51	-1
44	19444	11.61	-1
44	19594	11.71	-1
44	19745	11.81	-1
44	20108	11.91	-1
44	20262	12.01	-1
44	20412	12.11	-1
44	20562	12.21	-1
44	20712	12.31	-1
44	20862	12.41	-1
44	21012	12.51	-1
44	21162	12.61	-1
44	21312	12.71	-1
44	21462	12.81	-1
44	21869	12.91	-1
44	22024	13.01	-1
44	22174	13.11	-1
44	22324	13.21	-1
44	22474	13.31	-1
44	22624	13.41	-1
44	22774	13.51	-1
44	22924	13.61	-1
44	23074	13.71	-1
44	23224	13.81	-1
44	23375	13.91	-1
44	23742	14.01	-1
44	23892	14.11	-1
44	24042	14.21	-1
44	24192	14.31	-1
44	24342	14.41	-1
44	24492	14.51	-1
44	24642	14.61	-1
44	24792	14.71	-1
44	24942	14.81	-1
44	25092	14.91	-1
44	25459	15.01	-1
44	25610	15.11	-1
44	25760	15.21	-1
44	25910	15.31	-1
44	26060	15.41	-1
44	26210	15.51	-1
44	26360	15.61	-1
44	26510	15.71	-1
44	26660	15.81	-1
44	26810	15.91	-1
44	26964	16.01	-1
44	27114	16.11	-1
44	27264	16.21	-1
44	27414	16.31	-1
44	27564	16.41	-1
44	27714	16.51	-1
44	27864	16.61	-1
44	28014	16.71	-1
44	28164	16.81	-1
44	28314	16.91	-1
44	28468	17.01	-1
44	28618	17.11	-1
44	28768	17.21	-1
44	28918	17.31	-1
44	29068	17.41	-1
44	29218	17.51	-1
44	29368	17.61	-1
44	29518	17.71	-1
44	29668	17.81	-1
44	29818	17.91	-1
44	29972	18.01	-1
44	30122	18.11	-1
44	30272	18.21	-1
44	30422	18.31	-1
44	30572	18.41	-1
44	30722	18.51	-1
44	30872	18.61	-1
44	31022	18.71	-1
44	31172	18.81	-1
44	31322	18.91	-1
44	31476	19.01	-1
44	31626	19.11	-1
44	31776	19.21	-1
44	31926	19.31	-1
44	32076	19.41	-1
44	32226	19.51	-1
44	32376	19.61	-1
44	32526	19.71	-1
44	32676	19.81	-1
44	32826	19.91	-1
44	32980	20.01	-1
44	33130	20.11	-1
44	33280	20.21	-1
44	33430	20.31	-1
44	33580	20.41	-1
44	33730	20.51	-1
44	33880	20.61	-1
44	34030	20.71	-1
44	34180	20.81	-1
44	34330	20.91	-1
44	34484	21.01	-1
44	34634	21.11	-1
44	34784	21.21	-1
44	34934	21.31	-1
44	35084	21.41	-1
44	35234	21.51	-1
44	35384	21.61	-1
44	35534	21.71	-1
44	35684	21.81	-1
44	35834	21.91	-1
44	35988	22.01	-1
44	36138	22.11	-1
44	36288	22.21	-1
44	36438	22.31	-1
44	36588	22.41	-1
44	36738	22.51	-1
44	36888	22.61	-1
44	37038	22.71	-1
44	37188	22.81	-1
44	37338	22.91	-1
44	37492	23.01	-1
44	37642	23.11	-1
44	37792	23.21	-1
44	37942	23.31	-1
44	38092	23.41	-1
44	38242	23.51	-1
44	38392	23.61	-1
44	38542	23.71	-1
44	38692	23.81	-1
44	38842	23.91	-1
44	38996	24.01	-1
44	39146	24.11	-1
44	39296	24.21	-1
44	39446	24.31	-1
44	39596	24.41	-1
44	39746	24.51	-1
44	39896	24.61	-1
44	40046	24.71	-1
44	40196	24.81	-1
44	40346	24.91	-1
44	40500	25.01	-1
44	40650	25.11	-1
44	40800	25.21	-1
44	40950	25.31	-1
44	41100	25.41	-1
44	41250	25.51	-1
44	41400	25.61	-1
44	41550	25.71	-1
44	41700	25.81	-1
44	41850	25.91	-1
44	42004	26.01	-1
44	42154	26.11	-1
44	42304	26.21	-1
44	42454	26.31	-1
44	42604	26.41	-1
44	42754	26.51	-1
44	42904	26.61	-1
44	43055	26.71	-1
44	43205	26.81	-1
44	43355	26.91	-1
44	43509	27.01	-1
44	43659	27.11	-1
44	43809	27.21	-1
44	43959	27.31	-1
44	44109	27.41	-1
44	44259	27.51	-1
44	44409	27.61	-1
44	44559	27.71	-1
44	44709	27.81	-1
44	44859	27.91	-1
44	45013	28.01	-1
44	45163	28.11	-1
44	45313	28.21	-1
44	45463	28.31	-1
44	45613	28.41	-1
44	45763	28.51	-1
44	45913	28.61	-1
44	46063	28.71	-1
44	46213	28.81	-1
44	46363	28.91	-1
44	46517	29.01	-1
44	46667	29.11	-1
44	46817	29.21	-1
44	46967	29.31	-1
44	47117	29.41	-1
44	47267	29.51	-1
44	47417	29.61	-1
44	47567	29.71	-1
44	47717	29.81	-1
44	47867	29.91	-1
44	48021	30.01	-1
44	48171	30.11	-1
44	48321	30.21	-1
44	48471	30.31	-1
44	48621	30.41	-1
44	48771	30.51	-1
44	48921	30.61	-1
44	49071	30.71	-1
44	49221	30.81	-1
44	49371	30.91	-1
44	49525	31.01	-1
44	49675	31.11	-1
44	49825	31.21	-1
44	49975	31.31	-1
44	50125	31.41	-1
44	50275	31.51	-1
44	50425	31.61	-1
44	50575	31.71	-1
44	50725	31.81	-1
44	50875	31.91	-1
44	51029	32.01	-1
44	51179	32.11	-1
44	51329	32.21	-1
44	51479	32.31	-1
44	51629	32.41	-1
44	51779	32.51	-1
44	51929	32.61	-1
44	52079	32.71	-1
44	52229	32.81	-1
44	52379	32.91	-1
44	52533	33.01	-1
44	52683	33.11	-1
44	52833	33.21	-1
44	52983	33.31	-1
44	53133	33.41	-1
44	53283	33.51	-1
44	53433	33.61	-1
44	53583	33.71	-1
44	53733	33.81	-1
44	53883	33.91	-1
44	54037	34.01	-1
44	54187	34.11	-1
44	54337	34.21	-1
44	54487	34.31	-1
44	54637	34.41	-1
44	54787	34.51	-1
44	54937	34.61	-1
44	55087	34.71	-1
44	55237	34.81	-1
46	26	0.21	3
46	176	0.31	3
46	326	0.41	3
46	476	0.51	3
46	626	0.61	3
46	776	0.71	3
46	926	0.81	3
46	1076	0.91	3
46	1230	1.01	3
46	1381	1.11	3
46	1532	1.21	3
46	1683	1.31	3
46	2046	1.41	3
46	2196	1.51	3
46	2346	1.61	3
46	2496	1.71	3
46	2646	1.81	3
46	2796	1.91	3
46	2950	2.01	3
46	3100	2.11	3
46	3250	2.21	3
46	3400	2.31	3
46	3763	2.41	3
46	3914	2.51	3
46	4064	2.61	3
46	4214	2.71	3
46	4364	2.81	3
46	4514	2.91	3
46	4668	3.01	3
46	4818	3.11	3
46	4968	3.21	3
46	5118	3.31	3
46	5269	3.41	3
46	5676	3.51	3
46	5826	3.61	3
46	5976	3.71	3
46	6126	3.81	3
46	6276	3.91	3
46	6430	4.01	3
46	6580	4.11	3
46	6730	4.21	3
46	6880	4.31	3
46	7030	4.41	3
46	7393	4.51	3
46	7544	4.61	3
46	7694	4.71	3
46	7844	4.81	3
46	7994	4.91	3
46	8148	5.01	3
46	8298	5.11	3
46	8448	5.21	3
46	8598	5.31	3
46	8748	5.41	3
46	8899	5.51	3
46	9262	5.61	3
46	9412	5.71	3
46	9562	5.81	3
46	9712	5.91	3
46	9866	6.01	3
46	10016	6.11	3
46	10166	6.21	3
46	10316	6.31	3
46	10466	6.41	3
46	10616	6.51	3
46	11023	6.61	3
46	11174	6.71	3
46	11324	6.81	3
46	11474	6.91	3
46	11628	7.01	3
46	11778	7.11	3
46	11928	7.21	3
46	12078	7.31	3
46	12228	7.41	3
46	12378	7.51	3
46	12529	7.61	3
46	12892	7.71	3
46	13042	7.81	3
46	13192	7.91	3
46	13346	8.01	3
46	13496	8.11	3
46	13646	8.21	3
46	13796	8.31	3
46	13946	8.41	3
46	14096	8.51	3
46	14246	8.61	3
46	14609	8.71	3
46	14760	8.81	3
46	14910	8.91	3
46	15064	9.01	3
46	15214	9.11	3
46	15364	9.21	3
46	15514	9.31	3
46	15664	9.41	3
46	15814	9.51	3
46	15964	9.61	3
46	16115	9.71	3
46	16522	9.81	3
46	16672	9.91	3
46	16826	10.01	3
46	16976	10.11	3
46	17126	10.21	3
46	17276	10.31	3
46	17426	10.41	3
46	17576	10.51	3
46	17726	10.61	3
46	17876	10.71	3
46	18239	10.81	3
46	18390	10.91	3
46	18544	11.01	3
46	18694	11.11	3
46	18844	11.21	3
46	18994	11.31	3
46	19144	11.41	3
46	19294	11.51	3
46	19444	11.61	3
46	19594	11.71	3
46	19745	11.81	3
46	20108	11.91	3
46	20262	12.01	3
46	20412	12.11	3
46	20562	12.21	3
46	20712	12.31	3
46	20862	12.41	3
46	21012	12.51	3
46	21162	12.61	3
46	21312	12.71	3
46	21462	12.81	3
46	21869	12.91	3
46	22024	13.01	3
46	22174	13.11	3
46	22324	13.21	3
46	22474	13.31	3
46	22624	13.41	3
46	22774	13.51	3
46	22924	13.61	3
46	23074	13.71	3
46	23224	13.81	3
46	23375	13.91	3
46	23742	14.01	3
46	23892	14.11	3
46	24042	14.21	3
46	24192	14.31	3
46	24342	14.41	3
46	24492	14.51	3
46	24642	14.61	3
46	24792	14.71	3
46	24942	14.81	3
46	25092	14.91	3
46	25459	15.01	3
46	25610	15.11	3
46	25760	15.21	3
46	25910	15.31	3
46	26060	15.41	3
46	26210	15.51	3
46	26360	15.61	3
46	26510	15.71	3
46	26660	15.81	3
46	26810	15.91	3
46	26964	16.01	3
46	27114	16.11	3
46	27264	16.21	3
46	27414	16.31	3
46	27564	16.41	3
46	27714	16.51	3
46	27864	16.61	3
46	28014	16.71	3
46	28164	16.81	3
46	28314	16.91	3
46	28468	17.01	3
46	28618	17.11	3
46	28768	17.21	3
46	28918	17.31	3
46	29068	17.41	3
46	29218	17.51	3
46	29368	17.61	3
46	29518	17.71	3
46	29668	17.81	3
46	29818	17.91	3
46	29972	18.01	3
46	30122	18.11	3
46	30272	18.21	3
46	30422	18.31	3
46	30572	18.41	3
46	30722	18.51	3
46	30872	18.61	3
46	31022	18.71	3
46	31172	18.81	3
46	31322	18.91	3
46	31476	19.01	3
46	31626	19.11	3
46	31776	19.21	3
46	31926	19.31	3
46	32076	19.41	3
46	32226	19.51	3
46	32376	19.61	3
46	32526	19.71	3
46	32676	19.81	3
46	32826	19.91	3
46	32980	20.01	3
46	33130	20.11	3
46	33280	20.21	3
46	33430	20.31	3
46	33580	20.41	3
46	33730	20.51	3
46	33880	20.61	3
46	34030	20.71	3
46	34180	20.81	3
46	34330	20.91	3
46	34484	21.01	3
46	34634	21.11	3
46	34784	21.21	3
46	34934	21.31	3
46	35084	21.41	3
46	35234	21.51	3
46	35384	21.61	3
46	35534	21.71	3
46	35684	21.81	3
46	35834	21.91	3
46	35988	22.01	3
46	36138	22.11	3
46	36288	22.21	3
46	36438	22.31	3
46	36588	22.41	3
46	36738	22.51	3
46	36888	22.61	3
46	37038	22.71	3
46	37188	22.81	3
46	37338	22.91	3
46	37492	23.01	3
46	37642	23.11	3
46	37792	23.21	3
46	37942	23.31	3
46	38092	23.41	3
46	38242	23.51	3
46	38392	23.61	3
46	38542	23.71	3
46	38692	23.81	3
46	38842	23.91	3
46	38996	24.01	3
46	39146	24.11	3
46	39296	24.21	3
46	39446	24.31	3
46	39596	24.41	3
46	39746	24.51	3
46	39896	24.61	3
46	40046	24.71	3
46	40196	24.81	3
46	40346	24.91	3
46	40500	25.01	3
46	40650	25.11	3
46	40800	25.21	3
46	40950	25.31	3
46	41100	25.41	3
46	41250	25.51	3
46	41400	25.61	3
46	41550	25.71	3
46	41700	25.81	3
46	41850	25.91	3
46	42004	26.01	3
46	42154	26.11	3
46	42304	26.21	3
46	42454	26.31	3
46	42604	26.41	3
46	42754	26.51	3
46	42904	26.61	3
46	43055	26.71	3
46	43205	26.81	3
46	43355	26.91	3
46	43509	27.01	3
46	43659	27.11	3
46	43809	27.21	3
46	43959	27.31	3
46	44109	27.41	3
46	44259	27.51	3
46	44409	27.61	3
46	44559	27.71	3
46	44709	27.81	3
46	44859	27.91	3
46	45013	28.01	3
46	45163	28.11	3
46	45313	28.21	3
46	45463	28.31	3
46	45613	28.41	3
46	45763	28.51	3
46	45913	28.61	3
46	46063	28.71	3
46	46213	28.81	3
46	46363	28.91	3
46	46517	29.01	3
46	46667	29.11	3
46	46817	29.21	3
46	46967	29.31	3
46	47117	29.41	3
46	47267	29.51	3
46	47417	29.61	3
46	47567	29.71	3
46	47717	29.81	3
46	47867	29.91	3
46	48021	30.01	3
46	48171	30.11	3
46	48321	30.21	3
46	48471	30.31	3
46	48621	30.41	3
46	48771	30.51	3
46	48921	30.61	3
46	49071	30.71	3
46	49221	30.81	3
46	49371	30.91	3
46	49525	31.01	3
46	49675	31.11	3
46	49825	31.21	3
46	49975	31.31	3
46	50125	31.41	3
46	50275	31.51	3
46	50425	31.61	3
46	50575	31.71	3
46	50725	31.81	3
46	50875	31.91	3
46	51029	32.01	3
46	51179	32.11	3
46	51329	32.21	3
46	51479	32.31	3
46	51629	32.41	3
46	51779	32.51	3
46	51929	32.61	3
46	52079	32.71	3
46	52229	32.81	3
46	52379	32.91	3
46	52533	33.01	3
46	52683	33.11	3
46	52833	33.21	3
46	52983	33.31	3
46	53133	33.41	3
46	53283	33.51	3
46	53433	33.61	3
46	53583	33.71	3
46	53733	33.81	3
46	53883	33.91	3
46	54037	34.01	3
46	54187	34.11	3
46	54337	34.21	3
46	54487	34.31	3
46	54637	34.41	3
46	54787	34.51	3
46	54937	34.61	3
46	55087	34.71	3
46	55237	34.81	3
67	1191	1	0
67	2911	2	0
67	4629	3	0
67	6391	4	0
67	8109	5	0
67	9827	6	0
67	11589	7	0
67	13307	8	0
67	15025	9	0
67	16787	10	0
67	18505	11	0
67	20223	12	0
67	21985	13	0
67	23703	14	0
67	25420	15	0
67	26925	16	0
67	28429	17	0
67	29933	18	0
67	31437	19	0
67	32941	20	0
67	34445	21	0
67	35949	22	0
67	37453	23	0
67	38957	24	0
67	40461	25	0
67	41965	26	0
67	43470	27	0
67	44974	28	0
67	46478	29	0
67	47982	30	0
67	49486	31	0
67	50990	32	0
67	52494	33	0
67	53998	34	0
66	1191	1	0.009679
66	2911	2	0.013005628934
66	4629	3	0.013005383806
66	6391	4	0.013053155832
66	8109	5	0.013004933072
66	9827	6	0.01300471214
66	11589	7	0.013147492996
66	13307	8	0.013004275922
66	15025	9	0.013004060904
66	16787	10	0.013146847768
66	18505	11	0.013003636328
66	20223	12	0.013003426464
66	21985	13	0.013146218272
66	23703	14	0.01300302346
66	25420	15	0.01300319784
66	26925	16	0.01249
66	28429	17	0.01249
66	29933	18	0.01249
66	31437	19	0.01249
66	32941	20	0.01249
66	34445	21	0.01249
66	35949	22	0.01249
66	37453	23	0.01249
66	38957	24	0.01249
66	40461	25	0.01249
66	41965	26	0.01249
66	43470	27	0.01249
66	44974	28	0.01249
66	46478	29	0.01249
66	47982	30	0.01249
66	49486	31	0.01249
66	50990	32	0.01249
66	52494	33	0.01249
66	53998	34	0.01249
65	1191	1	3
65	2911	2	3
65	4629	3	3
65	6391	4	3
65	8109	5	3
65	9827	6	3
65	11589	7	3
65	13307	8	3
65	15025	9	3
65	16787	10	3
65	18505	11	3
65	20223	12	3
65	21985	13	3
65	23703	14	3
65	25420	15	3
65	26925	16	3
65	28429	17	3
65	29933	18	3
65	31437	19	3
65	32941	20	3
65	34445	21	3
65	35949	22	3
65	37453	23	3
65	38957	24	3
65	40461	25	3
65	41965	26	3
65	43470	27	3
65	44974	28	3
65	46478	29	3
65	47982	30	3
65	49486	31	3
65	50990	32	3
65	52494	33	3
65	53998	34	3
19	15	0.13	2.0559574613878
19	16	0.14	2.0557450039322
19	17	0.15	2.0555367726775
19	18	0.16	2.0553327256118
19	19	0.17	2.0551328207253
19	20	0.18	2.0549370160194
19	21	0.19	2.0547452695134
19	22	0.2	2.0545575392527
19	27	0.21	2.0543737833165
19	62	0.22	2.0541939598263
19	97	0.23	2.0540180269521
19	98	0.24	2.0538459429199
19	99	0.25	2.0536776660201
19	134	0.26	2.0535131546128
19	135	0.27	2.0533523671358
19	136	0.28	2.0531952621098
19	137	0.29	2.0530417981464
19	138	0.3	2.0528919339544
19	177	0.31	2.052745628345
19	212	0.32	2.052602840239
19	247	0.33	2.0524635286716
19	248	0.34	2.0523276527988
19	249	0.35	2.0521951719034
19	284	0.36	2.0520660454003
19	285	0.37	2.0519402328416
19	286	0.38	2.0518176939215
19	287	0.39	2.0516983884833
19	288	0.4	2.051582276522
19	327	0.41	2.0514693181904
19	362	0.42	2.0513594738039
19	397	0.43	2.0512527038451
19	398	0.44	2.0511489689678
19	399	0.45	2.0510482300018
19	434	0.46	2.0509504479572
19	435	0.47	2.0508555840283
19	436	0.48	2.050763599597
19	437	0.49	2.0506744562383
19	438	0.5	2.0505881157228
19	477	0.51	2.0505045400207
19	512	0.52	2.0504236913058
19	547	0.53	2.0503455319581
19	548	0.54	2.0502700245673
19	549	0.55	2.050197131937
19	584	0.56	2.0501268170873
19	585	0.57	2.0500590432567
19	586	0.58	2.0499937739067
19	587	0.59	2.0499309727237
19	588	0.6	2.0498706036224
19	627	0.61	2.0498126307476
19	662	0.62	2.049757018477
19	697	0.63	2.0497037314234
19	698	0.64	2.0496527344381
19	699	0.65	2.0496039926123
19	734	0.66	2.0495574712785
19	735	0.67	2.0495131360146
19	736	0.68	2.0494709526436
19	737	0.69	2.0494308872373
19	738	0.7	2.0493929061169
19	777	0.71	2.0493569758556
19	812	0.72	2.0493230632792
19	847	0.73	2.0492911354696
19	848	0.74	2.0492611597629
19	849	0.75	2.0492331037545
19	884	0.76	2.0492069352984
19	885	0.77	2.0491826225079
19	886	0.78	2.0491601337581
19	887	0.79	2.0491394376872
19	888	0.8	2.0491205031959
19	927	0.81	2.0491032994497
19	962	0.82	2.0490877958788
19	997	0.83	2.0490739621804
19	998	0.84	2.0490617683174
19	999	0.85	2.0490511845207
19	1034	0.86	2.0490421812896
19	1035	0.87	2.0490347293912
19	1036	0.88	2.0490287998622
19	1037	0.89	2.0490243640077
19	1038	0.9	2.0490213934042
19	1077	0.91	2.0490198598973
19	1112	0.92	2.0490197356025
19	1147	0.93	2.049020992907
19	1148	0.94	2.0490236044672
19	1149	0.95	2.0490275432111
19	1184	0.96	2.0490327823373
19	1185	0.97	2.0490392953144
19	1186	0.98	2.0490470558819
19	1187	0.99	2.0490560380504
19	1192	1	2.0490662160988
19	1231	1.01	2.0490775645778
19	1266	1.02	2.0490900583069
19	1301	1.03	2.0491036723744
19	1302	1.04	2.0491183821381
19	1303	1.05	2.0491341632242
19	1338	1.06	2.0491509915261
19	1339	1.07	2.0491688432058
19	1340	1.08	2.049187694691
19	1341	1.09	2.0492075226767
19	1342	1.1	2.0492283041226
19	1382	1.11	2.0492500162536
19	1417	1.12	2.0492726365592
19	1452	1.13	2.0492961427916
19	1453	1.14	2.0493205129661
19	1454	1.15	2.0493457253593
19	1489	1.16	2.0493717585094
19	1490	1.17	2.0493985912138
19	1491	1.18	2.0494262025295
19	1492	1.19	2.0494545717717
19	1493	1.2	2.0494836785122
19	1533	1.21	2.0495135025788
19	1568	1.22	2.0495440240546
19	1603	1.23	2.0495752232762
19	1604	1.24	2.0496070808338
19	1605	1.25	2.0496395775683
19	1640	1.26	2.0496726945712
19	1641	1.27	2.0497064131832
19	1642	1.28	2.0497407149933
19	1643	1.29	2.0497755818373
19	1644	1.3	2.0498109957963
19	1684	1.31	2.0498469391951
19	1931	1.32	2.049883394602
19	1966	1.33	2.0499203448268
19	1967	1.34	2.0499577729189
19	1968	1.35	2.0499956621666
19	2004	1.36	2.0500339960961
19	2005	1.37	2.0500727584689
19	2006	1.38	2.050111933281
19	2007	1.39	2.0501515047614
19	2008	1.4	2.0501914573712
19	2047	1.41	2.0502317758016
19	2082	1.42	2.0502724449709
19	2117	1.43	2.050313450026
19	2118	1.44	2.0503547763387
19	2119	1.45	2.0503964095046
19	2154	1.46	2.0504383353411
19	2155	1.47	2.0504805398879
19	2156	1.48	2.0505230094024
19	2157	1.49	2.0505657303602
19	2158	1.5	2.0506086894527
19	2197	1.51	2.0506518735863
19	2232	1.52	2.0506952698789
19	2267	1.53	2.0507388656604
19	2268	1.54	2.0507826484696
19	2269	1.55	2.0508266060527
19	2304	1.56	2.0508707263629
19	2305	1.57	2.0509149975572
19	2306	1.58	2.0509594079955
19	2307	1.59	2.0510039462385
19	2308	1.6	2.0510486010461
19	2347	1.61	2.0510933613758
19	2382	1.62	2.051138216382
19	2417	1.63	2.0511831554116
19	2418	1.64	2.0512281680051
19	2419	1.65	2.0512732438929
19	2454	1.66	2.0513183729955
19	2455	1.67	2.05136354542
19	2456	1.68	2.0514087514584
19	2457	1.69	2.0514539815875
19	2458	1.7	2.0514992264661
19	2497	1.71	2.0515444769327
19	2532	1.72	2.0515897240054
19	2567	1.73	2.0516349588778
19	2568	1.74	2.0516801729192
19	2569	1.75	2.0517253576722
19	2604	1.76	2.0517705048519
19	2605	1.77	2.0518156063415
19	2606	1.78	2.0518606541939
19	2607	1.79	2.0519056406281
19	2608	1.8	2.0519505580264
19	2647	1.81	2.0519953989357
19	2682	1.82	2.0520401560638
19	2717	1.83	2.052084822277
19	2718	1.84	2.0521293905999
19	2719	1.85	2.0521738542136
19	2754	1.86	2.0522182064529
19	2755	1.87	2.0522624408048
19	2756	1.88	2.0523065509077
19	2757	1.89	2.0523505305488
19	2758	1.9	2.0523943736634
19	2797	1.91	2.0524380743319
19	2832	1.92	2.0524816267784
19	2867	1.93	2.0525250253704
19	2868	1.94	2.0525682646148
19	2869	1.95	2.0526113391584
19	2904	1.96	2.0526542437854
19	2905	1.97	2.0526969734148
19	2906	1.98	2.0527395230999
19	2907	1.99	2.0527818880261
19	2912	2	2.0528240635097
19	2951	2.01	2.0528660449964
19	2986	2.02	2.052907828058
19	3021	2.03	2.0529494083938
19	3022	2.04	2.0529907818259
19	3023	2.05	2.053031944299
19	3058	2.06	2.0530728918785
19	3059	2.07	2.0531136207508
19	3060	2.08	2.0531541272178
19	3061	2.09	2.0531944076983
19	3062	2.1	2.0532344587264
19	3101	2.11	2.0532742769481
19	3136	2.12	2.053313859121
19	3171	2.13	2.0533532021131
19	3172	2.14	2.0533923029008
19	3173	2.15	2.0534311585663
19	3208	2.16	2.0534697662978
19	3209	2.17	2.0535081233874
19	3210	2.18	2.0535462272292
19	3211	2.19	2.053584075318
19	3212	2.2	2.0536216652474
19	3251	2.21	2.0536589947097
19	3286	2.22	2.0536960614934
19	3321	2.23	2.0537328634813
19	3322	2.24	2.0537693986501
19	3323	2.25	2.0538056650678
19	3358	2.26	2.0538416608939
19	3359	2.27	2.0538773843769
19	3360	2.28	2.0539128338521
19	3361	2.29	2.0539480077422
19	3362	2.3	2.0539829045548
19	3401	2.31	2.0540175228807
19	3436	2.32	2.0540518613928
19	3471	2.33	2.0540859188458
19	3472	2.34	2.0541196940724
19	3473	2.35	2.0541531859848
19	3509	2.36	2.0541863935716
19	3722	2.37	2.0542193158969
19	3723	2.38	2.0542519520996
19	3724	2.39	2.0542843013906
19	3725	2.4	2.054316363054
19	3765	2.41	2.054348136443
19	3800	2.42	2.05437962098
19	3835	2.43	2.0544108161562
19	3836	2.44	2.054441721529
19	3837	2.45	2.0544723367216
19	3872	2.46	2.0545026614217
19	3873	2.47	2.0545326953788
19	3874	2.48	2.0545624384057
19	3875	2.49	2.0545918903756
19	3876	2.5	2.054621051221
19	3915	2.51	2.0546499209324
19	3950	2.52	2.0546784995581
19	3985	2.53	2.0547067872027
19	3986	2.54	2.0547347840256
19	3987	2.55	2.0547624902401
19	4022	2.56	2.0547899061119
19	4023	2.57	2.0548170319592
19	4024	2.58	2.0548438681501
19	4025	2.59	2.0548704151025
19	4026	2.6	2.054896673283
19	4065	2.61	2.0549226432049
19	4100	2.62	2.0549483254292
19	4135	2.63	2.0549737205619
19	4136	2.64	2.0549988292529
19	4137	2.65	2.0550236521952
19	4172	2.66	2.0550481901255
19	4173	2.67	2.0550724438215
19	4174	2.68	2.0550964141003
19	4175	2.69	2.0551201018198
19	4176	2.7	2.0551435078764
19	4215	2.71	2.0551666332033
19	4250	2.72	2.0551894787713
19	4285	2.73	2.0552120455864
19	4286	2.74	2.05523433469
19	4287	2.75	2.0552563471571
19	4322	2.76	2.055278084096
19	4323	2.77	2.0552995466479
19	4324	2.78	2.0553207359843
19	4325	2.79	2.0553416533083
19	4326	2.8	2.0553622998522
19	4365	2.81	2.0553826768771
19	4400	2.82	2.0554027856723
19	4435	2.83	2.055422627555
19	4436	2.84	2.0554422038682
19	4437	2.85	2.0554615159813
19	4472	2.86	2.0554805652878
19	4473	2.87	2.0554993532056
19	4474	2.88	2.055517881177
19	4475	2.89	2.0555361506661
19	4476	2.9	2.0555541631586
19	4515	2.91	2.0555719201625
19	4550	2.92	2.0555894232054
19	4585	2.93	2.0556066738356
19	4586	2.94	2.0556236736202
19	4587	2.95	2.0556404241439
19	4622	2.96	2.0556569270107
19	4623	2.97	2.0556731838406
19	4624	2.98	2.0556891962702
19	4625	2.99	2.0557049659522
19	4630	3	2.0557204945545
19	4669	3.01	2.0557357837601
19	4704	3.02	2.0557508352644
19	4739	3.03	2.0557656507775
19	4740	3.04	2.0557802320216
19	4741	3.05	2.0557945807314
19	4776	3.06	2.0558086986533
19	4777	3.07	2.0558225875443
19	4778	3.08	2.0558362491724
19	4779	3.09	2.0558496853147
19	4780	3.1	2.0558628977577
19	4819	3.11	2.0558758882973
19	4854	3.12	2.0558886587376
19	4889	3.13	2.0559012108907
19	4890	3.14	2.0559135465751
19	4891	3.15	2.0559256676174
19	4926	3.16	2.055937575849
19	4927	3.17	2.0559492731077
19	4928	3.18	2.0559607612369
19	4929	3.19	2.0559720420849
19	4930	3.2	2.055983117504
19	4969	3.21	2.0559939893509
19	5004	3.22	2.0560046594853
19	5039	3.23	2.0560151297704
19	5040	3.24	2.0560254020718
19	5041	3.25	2.0560354782577
19	5076	3.26	2.0560453601972
19	5077	3.27	2.0560550497621
19	5078	3.28	2.0560645488239
19	5079	3.29	2.0560738592561
19	5080	3.3	2.0560829829314
19	5119	3.31	2.0560919217233
19	5154	3.32	2.0561006775039
19	5189	3.33	2.0561092521447
19	5190	3.34	2.0561176475166
19	5191	3.35	2.056125865488
19	5226	3.36	2.0561339079267
19	5227	3.37	2.0561417766975
19	5228	3.38	2.0561494736627
19	5229	3.39	2.0561570006815
19	5230	3.4	2.0561643596106
19	5270	3.41	2.0561715523026
19	5561	3.42	2.0561785806076
19	5596	3.43	2.05618544637
19	5597	3.44	2.0561921514314
19	5598	3.45	2.0561986976277
19	5634	3.46	2.0562050867902
19	5635	3.47	2.0562113207455
19	5636	3.48	2.0562174013144
19	5637	3.49	2.0562233303122
19	5638	3.5	2.0562291095486
19	5677	3.51	2.0562347408265
19	5712	3.52	2.0562402259434
19	5747	3.53	2.056245566689
19	5748	3.54	2.0562507648473
19	5749	3.55	2.0562558221949
19	5784	3.56	2.0562607405013
19	5785	3.57	2.0562655215286
19	5786	3.58	2.0562701670308
19	5787	3.59	2.0562746787541
19	5788	3.6	2.0562790584373
19	5827	3.61	2.0562833078106
19	5862	3.62	2.0562874285958
19	5897	3.63	2.0562914225066
19	5898	3.64	2.0562952912476
19	5899	3.65	2.056299036514
19	5934	3.66	2.0563026599929
19	5935	3.67	2.0563061633617
19	5936	3.68	2.0563095482883
19	5937	3.69	2.0563128164319
19	5938	3.7	2.0563159694409
19	5977	3.71	2.0563190089554
19	6012	3.72	2.0563219366042
19	6047	3.73	2.0563247540066
19	6048	3.74	2.0563274627722
19	6049	3.75	2.0563300644997
19	6084	3.76	2.0563325607785
19	6085	3.77	2.0563349531857
19	6086	3.78	2.0563372432898
19	6087	3.79	2.0563394326471
19	6088	3.8	2.0563415228035
19	6127	3.81	2.0563435152949
19	6162	3.82	2.0563454116452
19	6197	3.83	2.0563472133681
19	6198	3.84	2.0563489219654
19	6199	3.85	2.0563505389282
19	6234	3.86	2.0563520657361
19	6235	3.87	2.0563535038574
19	6236	3.88	2.056354854749
19	6237	3.89	2.0563561198565
19	6238	3.9	2.056357300614
19	6277	3.91	2.0563583984436
19	6312	3.92	2.0563594147568
19	6347	3.93	2.0563603509517
19	6348	3.94	2.0563612084163
19	6349	3.95	2.056361988526
19	6384	3.96	2.0563626926447
19	6385	3.97	2.0563633221239
19	6386	3.98	2.0563638783039
19	6387	3.99	2.0563643625134
19	6392	4	2.0563647760682
19	6431	4.01	2.0563651202722
19	6466	4.02	2.0563653964184
19	6501	4.03	2.0563656057867
19	6502	4.04	2.0563657496453
19	6503	4.05	2.0563658292506
19	6538	4.06	2.0563658458475
19	6539	4.07	2.0563658006675
19	6540	4.08	2.0563656949308
19	6541	4.09	2.0563655298456
19	6542	4.1	2.0563653066078
19	6581	4.11	2.0563650264014
19	6616	4.12	2.0563646903989
19	6651	4.13	2.0563642997595
19	6652	4.14	2.0563638556316
19	6653	4.15	2.0563633591509
19	6688	4.16	2.0563628114414
19	6689	4.17	2.0563622136148
19	6690	4.18	2.0563615667709
19	6691	4.19	2.0563608719978
19	6692	4.2	2.0563601303718
19	6731	4.21	2.0563593429566
19	6766	4.22	2.0563585108043
19	6801	4.23	2.0563576349552
19	6802	4.24	2.0563567164383
19	6803	4.25	2.0563557562703
19	6838	4.26	2.0563547554557
19	6839	4.27	2.0563537149878
19	6840	4.28	2.0563526358481
19	6841	4.29	2.0563515190073
19	6842	4.3	2.0563503654227
19	6881	4.31	2.0563491760413
19	6916	4.32	2.056347951798
19	6951	4.33	2.0563466936166
19	6952	4.34	2.056345402409
19	6953	4.35	2.0563440790759
19	6988	4.36	2.0563427245067
19	6989	4.37	2.0563413395797
19	6990	4.38	2.0563399251616
19	6991	4.39	2.0563384821082
19	6992	4.4	2.0563370112638
19	7031	4.41	2.0563355134616
19	7066	4.42	2.0563339895241
19	7101	4.43	2.0563324402623
19	7102	4.44	2.0563308664763
19	7103	4.45	2.0563292689559
19	7139	4.46	2.0563276484796
19	7352	4.47	2.0563260058153
19	7353	4.48	2.0563243417202
19	7354	4.49	2.0563226569408
19	7355	4.5	2.0563209522129
19	7395	4.51	2.0563192282623
19	7430	4.52	2.0563174858034
19	7465	4.53	2.0563157255411
19	7466	4.54	2.0563139481696
19	7467	4.55	2.0563121543725
19	7502	4.56	2.0563103448244
19	7503	4.57	2.0563085201881
19	7504	4.58	2.0563066811178
19	7505	4.59	2.0563048282569
[...]
2	68281	55.23	931.55726268403
2	68282	55.24	931.69615168374
2	68283	55.25	931.83504068346
2	68302	55.26	931.97392968317
2	68303	55.27	932.11281868289
2	68304	55.28	932.2517076826
2	68305	55.29	932.39059668231
2	68306	55.3	932.52948568203
2	68309	55.31	932.66837468175
2	68310	55.32	932.80726368146
2	68329	55.33	932.94615268118
2	68330	55.34	933.0850416809
2	68331	55.35	933.22393068061
2	68350	55.36	933.36281968033
2	68351	55.37	933.50170868005
2	68352	55.38	933.64059767977
2	68353	55.39	933.77948667949
2	68354	55.4	933.91837567921
2	68357	55.41	934.05726467893
2	68358	55.42	934.19615367865
2	68377	55.43	934.33504267837
2	68378	55.44	934.47393167809
2	68379	55.45	934.61282067782
2	68398	55.46	934.75170967754
2	68399	55.47	934.89059867726
2	68400	55.48	935.02948767698
2	68401	55.49	935.16837667671
2	68402	55.5	935.30726567643
2	68405	55.51	935.44615467616
2	68406	55.52	935.58504367588
2	68425	55.53	935.72393267561
2	68426	55.54	935.86282167533
2	68427	55.55	936.00171067506
2	68446	55.56	936.14059967479
2	68447	55.57	936.27948867451
2	68448	55.58	936.41837767424
2	68449	55.59	936.55726667397
2	68450	55.6	936.6961556737
2	68453	55.61	936.83504467343
2	68454	55.62	936.97393367316
2	68473	55.63	937.11282267289
2	68474	55.64	937.25171167262
2	68475	55.65	937.39060067235
2	68494	55.66	937.52948967208
2	68495	55.67	937.66837867181
2	68496	55.68	937.80726767154
2	68497	55.69	937.94615667127
2	68498	55.7	938.08504567101
2	68501	55.71	938.22393467074
2	68502	55.72	938.36282367047
2	68521	55.73	938.50171267021
2	68522	55.74	938.64060166994
2	68523	55.75	938.77949066968
2	68542	55.76	938.91837966941
2	68543	55.77	939.05726866915
2	68544	55.78	939.19615766888
2	68545	55.79	939.33504666862
2	68546	55.8	939.47393566836
2	68549	55.81	939.61282466809
2	68550	55.82	939.75171366783
2	68569	55.83	939.89060266757
2	68570	55.84	940.02949166731
2	68571	55.85	940.16838066705
2	68590	55.86	940.30726966679
2	68591	55.87	940.44615866653
2	68592	55.88	940.58504766627
2	68593	55.89	940.72393666601
2	68594	55.9	940.86282566575
2	68597	55.91	941.00171466549
2	68598	55.92	941.14060366523
2	68617	55.93	941.27949266497
2	68618	55.94	941.41838166472
2	68619	55.95	941.55727066446
2	68638	55.96	941.6961596642
2	68639	55.97	941.83504866395
2	68640	55.98	941.97393766369
2	68641	55.99	942.11282666343
2	68644	56	942.25171566318
2	68647	56.01	942.39060466292
2	68648	56.02	942.52949366267
2	68667	56.03	942.66838266242
2	68668	56.04	942.80727166216
2	68669	56.05	942.94616066191
2	68688	56.06	943.08504966166
2	68689	56.07	943.2239386614
2	68690	56.08	943.36282766115
2	68691	56.09	943.5017166609
2	68692	56.1	943.64060566065
2	68695	56.11	943.7794946604
2	68696	56.12	943.91838366015
2	68715	56.13	944.0572726599
2	68716	56.14	944.19616165965
2	68717	56.15	944.3350506594
2	68736	56.16	944.47393965915
2	68737	56.17	944.6128286589
2	68738	56.18	944.75171765866
2	68739	56.19	944.89060665841
2	68740	56.2	945.02949565816
2	68743	56.21	945.16838465791
2	68744	56.22	945.30727365767
2	68763	56.23	945.44616265742
2	68764	56.24	945.58505165718
2	68765	56.25	945.72394065693
2	68784	56.26	945.86282965669
2	68785	56.27	946.00171865644
2	68786	56.28	946.1406076562
2	68787	56.29	946.27949665595
2	68788	56.3	946.41838565571
2	68791	56.31	946.55727465547
2	68792	56.32	946.69616365522
2	68811	56.33	946.83505265498
2	68812	56.34	946.97394165474
2	68813	56.35	947.1128306545
2	68832	56.36	947.25171965426
2	68833	56.37	947.39060865402
2	68834	56.38	947.52949765378
2	68835	56.39	947.66838665354
2	68836	56.4	947.8072756533
2	68839	56.41	947.94616465306
2	68840	56.42	948.08505365282
2	68859	56.43	948.22394265258
2	68860	56.44	948.36283165234
2	68861	56.45	948.5017206521
2	68880	56.46	948.64060965187
2	68881	56.47	948.77949865163
2	68882	56.48	948.91838765139
2	68883	56.49	949.05727665116
2	68884	56.5	949.19616565092
2	68887	56.51	949.33505465069
2	68888	56.52	949.47394365045
2	68907	56.53	949.61283265022
2	68908	56.54	949.75172164998
2	68909	56.55	949.89061064975
2	68928	56.56	950.02949964951
2	68929	56.57	950.16838864928
2	68930	56.58	950.30727764905
2	68931	56.59	950.44616664881
2	68932	56.6	950.58505564858
2	68935	56.61	950.72394464835
2	68936	56.62	950.86283364812
2	68955	56.63	951.00172264789
2	68956	56.64	951.14061164766
2	68957	56.65	951.27950064743
2	68976	56.66	951.4183896472
2	68977	56.67	951.55727864697
2	68978	56.68	951.69616764674
2	68979	56.69	951.83505664651
2	68980	56.7	951.97394564628
2	68983	56.71	952.11283464605
2	68984	56.72	952.25172364582
2	69003	56.73	952.3906126456
2	69004	56.74	952.52950164537
2	69005	56.75	952.66839064514
2	69024	56.76	952.80727964491
2	69025	56.77	952.94616864469
2	69026	56.78	953.08505764446
2	69027	56.79	953.22394664424
2	69028	56.8	953.36283564401
2	69031	56.81	953.50172464379
2	69032	56.82	953.64061364356
2	69051	56.83	953.77950264334
2	69052	56.84	953.91839164312
2	69053	56.85	954.05728064289
2	69072	56.86	954.19616964267
2	69073	56.87	954.33505864245
2	69074	56.88	954.47394764222
2	69075	56.89	954.612836642
2	69076	56.9	954.75172564178
2	69079	56.91	954.89061464156
2	69080	56.92	955.02950364134
2	69099	56.93	955.16839264112
2	69100	56.94	955.3072816409
2	69101	56.95	955.44617064068
2	69120	56.96	955.58505964046
2	69121	56.97	955.72394864024
2	69122	56.98	955.86283764002
2	69123	56.99	956.0017266398
2	69126	57	956.14061563958
2	69129	57.01	956.27950463937
2	69130	57.02	956.41839363915
2	69149	57.03	956.55728263893
2	69150	57.04	956.69617163871
2	69151	57.05	956.8350606385
2	69170	57.06	956.97394963828
2	69171	57.07	957.11283863806
2	69172	57.08	957.25172763785
2	69173	57.09	957.39061663763
2	69174	57.1	957.52950563742
2	69177	57.11	957.66839463721
2	69178	57.12	957.80728363699
2	69197	57.13	957.94617263678
2	69198	57.14	958.08506163656
2	69199	57.15	958.22395063635
2	69218	57.16	958.36283963614
2	69219	57.17	958.50172863593
2	69220	57.18	958.64061763571
2	69221	57.19	958.7795066355
2	69222	57.2	958.91839563529
2	69225	57.21	959.05728463508
2	69226	57.22	959.19617363487
2	69245	57.23	959.33506263466
2	69246	57.24	959.47395163445
2	69247	57.25	959.61284063424
2	69266	57.26	959.75172963403
2	69267	57.27	959.89061863382
2	69268	57.28	960.02950763361
2	69269	57.29	960.1683966334
2	69270	57.3	960.30728563319
2	69273	57.31	960.44617463299
2	69274	57.32	960.58506363278
2	69293	57.33	960.72395263257
2	69294	57.34	960.86284163236
2	69295	57.35	961.00173063216
2	69314	57.36	961.14061963195
2	69315	57.37	961.27950863174
2	69316	57.38	961.41839763154
2	69317	57.39	961.55728663133
2	69318	57.4	961.69617563113
2	69321	57.41	961.83506463092
2	69322	57.42	961.97395363072
2	69341	57.43	962.11284263052
2	69342	57.44	962.25173163031
2	69343	57.45	962.39062063011
2	69362	57.46	962.52950962991
2	69363	57.47	962.6683986297
2	69364	57.48	962.8072876295
2	69365	57.49	962.9461766293
2	69366	57.5	963.0850656291
2	69369	57.51	963.22395462889
2	69370	57.52	963.36284362869
2	69389	57.53	963.50173262849
2	69390	57.54	963.64062162829
2	69391	57.55	963.77951062809
2	69410	57.56	963.91839962789
2	69411	57.57	964.05728862769
2	69412	57.58	964.19617762749
2	69413	57.59	964.33506662729
2	69414	57.6	964.4739556271
2	69417	57.61	964.6128446269
2	69418	57.62	964.7517336267
2	69437	57.63	964.8906226265
2	69438	57.64	965.0295116263
2	69439	57.65	965.16840062611
2	69458	57.66	965.30728962591
2	69459	57.67	965.44617862571
2	69460	57.68	965.58506762552
2	69461	57.69	965.72395662532
2	69462	57.7	965.86284562513
2	69465	57.71	966.00173462493
2	69466	57.72	966.14062362474
2	69485	57.73	966.27951262454
2	69486	57.74	966.41840162435
2	69487	57.75	966.55729062415
2	69506	57.76	966.69617962396
2	69507	57.77	966.83506862377
2	69508	57.78	966.97395762357
2	69509	57.79	967.11284662338
2	69510	57.8	967.25173562319
2	69513	57.81	967.39062462299
2	69514	57.82	967.5295136228
2	69533	57.83	967.66840262261
2	69534	57.84	967.80729162242
2	69535	57.85	967.94618062223
2	69554	57.86	968.08506962204
2	69555	57.87	968.22395862185
2	69556	57.88	968.36284762166
2	69557	57.89	968.50173662147
2	69558	57.9	968.64062562128
2	69561	57.91	968.77951462109
2	69562	57.92	968.9184036209
2	69581	57.93	969.05729262071
2	69582	57.94	969.19618162052
2	69583	57.95	969.33507062033
2	69602	57.96	969.47395962015
2	69603	57.97	969.61284861996
2	69604	57.98	969.75173761977
2	69605	57.99	969.89062661958
2	69608	58	970.0295156194
2	69611	58.01	970.16840461921
2	69612	58.02	970.30729361903
2	69631	58.03	970.44618261884
2	69632	58.04	970.58507161865
2	69633	58.05	970.72396061847
2	69652	58.06	970.86284961828
2	69653	58.07	971.0017386181
2	69654	58.08	971.14062761791
2	69655	58.09	971.27951661773
2	69656	58.1	971.41840561755
2	69659	58.11	971.55729461736
2	69660	58.12	971.69618361718
2	69679	58.13	971.835072617
2	69680	58.14	971.97396161681
2	69681	58.15	972.11285061663
2	69700	58.16	972.25173961645
2	69701	58.17	972.39062861627
2	69702	58.18	972.52951761609
2	69703	58.19	972.66840661591
2	69704	58.2	972.80729561573
2	69707	58.21	972.94618461554
2	69708	58.22	973.08507361536
2	69727	58.23	973.22396261518
2	69728	58.24	973.362851615
2	69729	58.25	973.50174061482
2	69748	58.26	973.64062961465
2	69749	58.27	973.77951861447
2	69750	58.28	973.91840761429
2	69751	58.29	974.05729661411
2	69752	58.3	974.19618561393
2	69755	58.31	974.33507461375
2	69756	58.32	974.47396361358
2	69775	58.33	974.6128526134
2	69776	58.34	974.75174161322
2	69777	58.35	974.89063061304
2	69796	58.36	975.02951961287
2	69797	58.37	975.16840861269
2	69798	58.38	975.30729761252
2	69799	58.39	975.44618661234
2	69800	58.4	975.58507561217
2	69803	58.41	975.72396461199
2	69804	58.42	975.86285361182
2	69823	58.43	976.00174261164
2	69824	58.44	976.14063161147
2	69825	58.45	976.27952061129
2	69844	58.46	976.41840961112
2	69845	58.47	976.55729861095
2	69846	58.48	976.69618761077
2	69847	58.49	976.8350766106
2	69848	58.5	976.97396561043
2	69851	58.51	977.11285461025
2	69852	58.52	977.25174361008
2	69871	58.53	977.39063260991
2	69872	58.54	977.52952160974
2	69873	58.55	977.66841060957
2	69892	58.56	977.8072996094
2	69893	58.57	977.94618860923
2	69894	58.58	978.08507760906
2	69895	58.59	978.22396660889
2	69896	58.6	978.36285560872
2	69899	58.61	978.50174460855
2	69900	58.62	978.64063360838
2	69919	58.63	978.77952260821
2	69920	58.64	978.91841160804
2	69921	58.65	979.05730060787
2	69940	58.66	979.1961896077
2	69941	58.67	979.33507860753
2	69942	58.68	979.47396760736
2	69943	58.69	979.6128566072
2	69944	58.7	979.75174560703
2	69947	58.71	979.89063460686
2	69948	58.72	980.0295236067
2	69967	58.73	980.16841260653
2	69968	58.74	980.30730160636
2	69969	58.75	980.4461906062
2	69988	58.76	980.58507960603
2	69989	58.77	980.72396860587
2	69990	58.78	980.8628576057
2	69991	58.79	981.00174660554
2	69992	58.8	981.14063560537
2	69995	58.81	981.27952460521
2	69996	58.82	981.41841360504
2	70015	58.83	981.55730260488
2	70016	58.84	981.69619160471
2	70017	58.85	981.83508060455
2	70036	58.86	981.97396960439
2	70037	58.87	982.11285860422
2	70038	58.88	982.25174760406
2	70039	58.89	982.3906366039
2	70040	58.9	982.52952560374
2	70043	58.91	982.66841460358
2	70044	58.92	982.80730360341
2	70063	58.93	982.94619260325
2	70064	58.94	983.08508160309
2	70065	58.95	983.22397060293
2	70084	58.96	983.36285960277
2	70085	58.97	983.50174860261
2	70086	58.98	983.64063760245
2	70087	58.99	983.77952660229
2	70090	59	983.91841560213
2	70093	59.01	984.05730460197
2	70094	59.02	984.19619360181
2	70113	59.03	984.33508260165
2	70114	59.04	984.47397160149
2	70115	59.05	984.61286060133
2	70134	59.06	984.75174960118
2	70135	59.07	984.89063860102
2	70136	59.08	985.02952760086
2	70137	59.09	985.1684166007
2	70138	59.1	985.30730560055
2	70141	59.11	985.44619460039
2	70142	59.12	985.58508360023
2	70161	59.13	985.72397260008
2	70162	59.14	985.86286159992
2	70163	59.15	986.00175059976
2	70182	59.16	986.14063959961
2	70183	59.17	986.27952859945
2	70184	59.18	986.4184175993
2	70185	59.19	986.55730659914
2	70186	59.2	986.69619559899
2	70189	59.21	986.83508459883
2	70190	59.22	986.97397359868
2	70209	59.23	987.11286259852
2	70210	59.24	987.25175159837
2	70211	59.25	987.39064059822
2	70230	59.26	987.52952959806
2	70231	59.27	987.66841859791
2	70232	59.28	987.80730759776
2	70233	59.29	987.94619659761
2	70234	59.3	988.08508559745
2	70237	59.31	988.2239745973
2	70238	59.32	988.36286359715
2	70257	59.33	988.501752597
2	70258	59.34	988.64064159685
2	70259	59.35	988.77953059669
2	70278	59.36	988.91841959654
2	70279	59.37	989.05730859639
2	70280	59.38	989.19619759624
2	70281	59.39	989.33508659609
2	70282	59.4	989.47397559594
2	70285	59.41	989.61286459579
2	70286	59.42	989.75175359564
2	70305	59.43	989.89064259549
2	70306	59.44	990.02953159534
2	70307	59.45	990.1684205952
2	70326	59.46	990.30730959505
2	70327	59.47	990.4461985949
2	70328	59.48	990.58508759475
2	70329	59.49	990.7239765946
2	70330	59.5	990.86286559446
2	70333	59.51	991.00175459431
2	70334	59.52	991.14064359416
2	70353	59.53	991.27953259401
2	70354	59.54	991.41842159387
2	70355	59.55	991.55731059372
2	70374	59.56	991.69619959357
2	70375	59.57	991.83508859343
2	70376	59.58	991.97397759328
2	70377	59.59	992.11286659314
2	70378	59.6	992.25175559299
2	70381	59.61	992.39064459285
2	70382	59.62	992.5295335927
2	70401	59.63	992.66842259256
2	70402	59.64	992.80731159241
2	70403	59.65	992.94620059227
2	70422	59.66	993.08508959212
2	70423	59.67	993.22397859198
2	70424	59.68	993.36286759183
2	70425	59.69	993.50175659169
2	70426	59.7	993.64064559155
2	70429	59.71	993.77953459141
2	70430	59.72	993.91842359126
2	70449	59.73	994.05731259112
2	70450	59.74	994.19620159098
2	70451	59.75	994.33509059084
2	70470	59.76	994.47397959069
2	70471	59.77	994.61286859055
2	70472	59.78	994.75175759041
2	70473	59.79	994.89064659027
2	70474	59.8	995.02953559013
2	70477	59.81	995.16842458999
2	70478	59.82	995.30731358985
2	70497	59.83	995.44620258971
2	70498	59.84	995.58509158957
2	70499	59.85	995.72398058943
2	70518	59.86	995.86286958929
2	70519	59.87	996.00175858915
2	70520	59.88	996.14064758901
2	70521	59.89	996.27953658887
2	70522	59.9	996.41842558873
2	70525	59.91	996.55731458859
2	70526	59.92	996.69620358845
2	70545	59.93	996.83509258832
2	70546	59.94	996.97398158818
2	70547	59.95	997.11287058804
2	70566	59.96	997.2517595879
2	70567	59.97	997.39064858777
2	70568	59.98	997.52953758763
2	70569	59.99	997.66842658749
2	70572	60	997.80731558736
2	70575	60.01	997.94620458722
2	70576	60.02	998.08509358708
2	70595	60.03	998.22398258695
2	70596	60.04	998.36287158681
2	70597	60.05	998.50176058668
2	70616	60.06	998.64064958654
2	70617	60.07	998.77953858641
2	70618	60.08	998.91842758627
2	70619	60.09	999.05731658614
2	70620	60.1	999.196205586
2	70623	60.11	999.33509458587
2	70624	60.12	999.47398358573
2	70643	60.13	999.6128725856
2	70644	60.14	999.75176158547
2	70645	60.15	999.89065058533
2	70664	60.16	1000.0295395852
2	70665	60.17	1000.1684285851
2	70666	60.18	1000.3073175849
2	70667	60.19	1000.4462065848
2	70668	60.2	1000.5850955847
2	70671	60.21	1000.7239845845
2	70672	60.22	1000.8628735844
2	70691	60.23	1001.0017625843
2	70692	60.24	1001.1406515841
2	70693	60.25	1001.279540584
2	70712	60.26	1001.4184295839
2	70713	60.27	1001.5573185837
2	70714	60.28	1001.6962075836
2	70715	60.29	1001.8350965835
2	70716	60.3	1001.9739855834
2	70719	60.31	1002.1128745832
2	70720	60.32	1002.2517635831
2	70739	60.33	1002.390652583
2	70740	60.34	1002.5295415828
2	70741	60.35	1002.6684305827
2	70760	60.36	1002.8073195826
2	70761	60.37	1002.9462085824
2	70762	60.38	1003.0850975823
2	70763	60.39	1003.2239865822
2	70764	60.4	1003.3628755821
2	70767	60.41	1003.5017645819
2	70768	60.42	1003.6406535818
2	70787	60.43	1003.7795425817
2	70788	60.44	1003.9184315816
2	70789	60.45	1004.0573205814
2	70808	60.46	1004.1962095813
2	70809	60.47	1004.3350985812
2	70810	60.48	1004.473987581
2	70811	60.49	1004.6128765809
2	70812	60.5	1004.7517655808
2	70815	60.51	1004.8906545807
2	70816	60.52	1005.0295435805
2	70835	60.53	1005.1684325804
2	70836	60.54	1005.3073215803
2	70837	60.55	1005.4462105802
2	70856	60.56	1005.58509958
2	70857	60.57	1005.7239885799
2	70858	60.58	1005.8628775798
2	70859	60.59	1006.0017665797
2	70860	60.6	1006.1406555795
2	70863	60.61	1006.2795445794
2	70864	60.62	1006.4184335793
2	70883	60.63	1006.5573225792
2	70884	60.64	1006.696211579
2	70885	60.65	1006.8351005789
2	70904	60.66	1006.9739895788
2	70905	60.67	1007.1128785787
2	70906	60.68	1007.2517675786
2	70907	60.69	1007.3906565784
2	70908	60.7	1007.5295455783
2	70911	60.71	1007.6684345782
2	70912	60.72	1007.8073235781
2	70931	60.73	1007.9462125779
2	70932	60.74	1008.0851015778
2	70933	60.75	1008.2239905777
2	70952	60.76	1008.3628795776
2	70953	60.77	1008.5017685775
2	70954	60.78	1008.6406575773
2	70955	60.79	1008.7795465772
2	70956	60.8	1008.9184355771
2	70959	60.81	1009.057324577
2	70960	60.82	1009.1962135769
2	70979	60.83	1009.3351025767
2	70980	60.84	1009.4739915766
2	70981	60.85	1009.6128805765
2	71000	60.86	1009.7517695764
2	71001	60.87	1009.8906585763
2	71002	60.88	1010.0295475761
2	71003	60.89	1010.168436576
2	71004	60.9	1010.3073255759
2	71007	60.91	1010.4462145758
2	71008	60.92	1010.5851035757
2	71027	60.93	1010.7239925755
2	71028	60.94	1010.8628815754
2	71029	60.95	1011.0017705753
2	71048	60.96	1011.1406595752
2	71049	60.97	1011.2795485751
2	71050	60.98	1011.418437575
2	71051	60.99	1011.5573265748
2	71054	61	1011.6962155747
2	71057	61.01	1011.8351045746
2	71058	61.02	1011.9739935745
2	71077	61.03	1012.1128825744
2	71078	61.04	1012.2517715743
2	71079	61.05	1012.3906605741
2	71098	61.06	1012.529549574
2	71099	61.07	1012.6684385739
2	71100	61.08	1012.8073275738
2	71101	61.09	1012.9462165737
2	71102	61.1	1013.0851055736
2	71105	61.11	1013.2239945734
2	71106	61.12	1013.3628835733
2	71125	61.13	1013.5017725732
2	71126	61.14	1013.6406615731
2	71127	61.15	1013.779550573
2	71146	61.16	1013.9184395729
2	71147	61.17	1014.0573285728
2	71148	61.18	1014.1962175726
2	71149	61.19	1014.3351065725
2	71150	61.2	1014.4739955724
2	71153	61.21	1014.6128845723
2	71154	61.22	1014.7517735722
2	71173	61.23	1014.8906625721
2	71174	61.24	1015.029551572
2	71175	61.25	1015.1684405719
2	71194	61.26	1015.3073295717
2	71195	61.27	1015.4462185716
2	71196	61.28	1015.5851075715
2	71197	61.29	1015.7239965714
2	71198	61.3	1015.8628855713
2	71201	61.31	1016.0017745712
2	71202	61.32	1016.1406660221
2	71213	61.33	1016.2795647778
2	71214	61.34	1016.4184755972
2	71215	61.35	1016.5574031456
2	71216	61.36	1016.6963519969
2	71217	61.37	1016.8353266355
2	71218	61.38	1016.9743314577
2	71219	61.39	1017.1133707735
2	71220	61.4	1017.2524488086
2	71222	61.41	1017.3915697058
2	71223	61.42	1017.5307375265
2	71234	61.43	1017.6699562528
2	71235	61.44	1017.8092297883
2	71236	61.45	1017.9485619604
2	71237	61.46	1018.0879565212
2	71238	61.47	1018.2274171495
2	71239	61.48	1018.3669474518
2	71240	61.49	1018.5065509638
2	71241	61.5	1018.646231152
2	71243	61.51	1018.785991415
2	71244	61.52	1018.9258350845
2	71255	61.53	1019.0657654273
2	71256	61.54	1019.2057856456
2	71257	61.55	1019.3458988793
2	71258	61.56	1019.4861082064
2	71259	61.57	1019.6264166448
2	71260	61.58	1019.766827153
2	71261	61.59	1019.9073426316
2	71262	61.6	1020.0479659244
2	71264	61.61	1020.1886998192
2	71265	61.62	1020.3295470495
2	71276	61.63	1020.4705102949
2	71277	61.64	1020.6115921824
2	71278	61.65	1020.7527952879
2	71279	61.66	1020.8941221364
2	71280	61.67	1021.0355752036
2	71281	61.68	1021.1771569165
2	71282	61.69	1021.3188696547
2	71283	61.7	1021.4607157509
2	71285	61.71	1021.6026974923
2	71286	61.72	1021.7448171211
2	71297	61.73	1021.8870768356
2	71298	61.74	1022.029478791
2	71299	61.75	1022.1720251002
2	71300	61.76	1022.3147178347
2	71301	61.77	1022.4575590254
2	71302	61.78	1022.6005506634
2	71303	61.79	1022.7436947006
2	71304	61.8	1022.8869930508
2	71306	61.81	1023.0304475902
2	71307	61.82	1023.1740601582
2	71318	61.83	1023.3178325583
2	71319	61.84	1023.4617665583
2	71320	61.85	1023.6058638917
2	71321	61.86	1023.7501262577
2	71322	61.87	1023.8945553225
2	71323	61.88	1024.0391527193
2	71324	61.89	1024.1839200495
2	71325	61.9	1024.328858883
2	71327	61.91	1024.473970759
2	71328	61.92	1024.6192571865
2	71339	61.93	1024.7647196448

