version 3
run OvertakeNoGui-343-20241104-10:08:07-93140
attr configname OvertakeNoGui
attr datetime 20241104-10:08:07
attr datetimef 20241104-100807
attr experiment OvertakeNoGui
attr inifile omnetpp.ini
attr iterationvars "$leaderHeadway=1.2, $leaderSpeed=50, $controller=0, $pCSpeed=61, $pDeltaC=484"
attr iterationvarsd leaderHeadway=1.2/leaderSpeed=50/controller=0/pCSpeed=61/pDeltaC=484
attr iterationvarsf leaderHeadway=1.2,leaderSpeed=50,controller=0,pCSpeed=61,pDeltaC=484-
attr measurement "$leaderHeadway=1.2, $leaderSpeed=50, $controller=0, $pCSpeed=61, $pDeltaC=484"
attr network Overtake
attr processid 93140
attr repetition 0
attr replication #0
attr resultdir results
attr runnumber 343
attr seedset 0
itervar controller 0
itervar leaderHeadway 1.2
itervar leaderSpeed 50
itervar pCSpeed 61
itervar pDeltaC 484
config image-path ../../../../veins/images;../../images
config *.manager.command "\"sumo\""
config *.manager.ignoreGuiCommands true
config *.node[*].scenario_type "\"OvertakeScenario\""
config output-vector-file results/OvertakeNoGui_61_484_0.vec
config output-scalar-file results/OvertakeNoGui_61_484_0.sca
config cmdenv-express-mode false
config cmdenv-autoflush true
config cmdenv-status-frequency 10s
config num-rngs 6
config cmdenv-output-file log.txt
config cmdenv-redirect-output true
config network Overtake
config debug-on-errors true
config print-undisposed true
config *.playgroundSizeX 65000m
config *.playgroundSizeY 25000m
config *.playgroundSizeZ 50m
config sim-time-limit "360 s"
config *.annotations.draw false
config *.obstacles.debug false
config *.world.useTorus false
config *.world.use2D false
config *.manager.updateInterval 0.01s
config *.manager.host "\"localhost\""
config *.manager.moduleType "\"vtypeauto=org.car2x.plexe.PlatoonCar vtypehuman=0\""
config *.manager.moduleName "\"vtypeauto=node vtypehuman=0\""
config *.manager.moduleDisplayString "\"\""
config *.manager.autoShutdown true
config *.manager.margin 25
config *.manager.order -1
config *.connectionManager.sendDirect true
config *.connectionManager.maxInterfDist 2600m
config *.connectionManager.drawMaxIntfDist false
config *.**.nic.mac1609_4.useServiceChannel false
config *.**.nic.mac1609_4.txPower 100mW
config *.**.nic.mac1609_4.bitrate 6Mbps
config *.**.nic.mac1609_4.useAcks true
config *.**.nic.mac1609_4.ackErrorRate 0.0
config *.**.nic.mac1609_4.frameErrorRate 0.0
config *.**.nic.phy80211p.minPowerLevel -94dBm
config *.**.nic.phy80211p.maxTXPower 100mW
config *.**.nic.phy80211p.useNoiseFloor true
config *.**.nic.phy80211p.noiseFloor -95dBm
config *.**.nic.phy80211p.decider "xmldoc(\"config.xml\")"
config *.**.nic.phy80211p.analogueModels "xmldoc(\"config.xml\")"
config *.**.nic.phy80211p.usePropagationDelay true
config *.node[*].mobility.x 0
config *.node[*].mobility.y 0
config *.node[*].mobility.z 1.895
config *.shockwave[*].mobility.x 0
config *.shockwave[*].mobility.y 0
config *.shockwave[*].mobility.z 1.895
config seed-set 0
config **.seed 0
config *.node[*].prot.rng-0 2
config *.node[*].appl.rng-0 3
config *.node[*].scenario.rng-0 4
config *.manager.configFile "\"./sumocfg/overtake.sumo.cfg\""
config *.manager.launchConfig "xmldoc(\"./sumocfg/overtake.launchd.xml\")"
config *.node[*].helper_type "\"PositionHelper\""
config *.node[*].scenario.caccC1 0.5
config *.node[*].scenario.caccXi 1
config *.node[*].scenario.caccOmegaN "0.2 Hz"
config *.node[*].scenario.caccSpacing "5 m"
config *.node[*].scenario.engineTau "0.5 s"
config *.node[*].scenario.ploegH "0.5 s"
config *.node[*].scenario.ploegKp 0.2
config *.node[*].scenario.ploegKd 0.7
config *.node[*].scenario.useRealisticEngine false
config *.node[*].scenario.targetController "\"CACC\""
config *.node[*].scenario.accHeadway "0.1 s"
config *.node[*].scenario.leaderHeadway "1.2 s"
config *.node[*].scenario.leaderSpeed "50 kmph"
config *.node[*].appl_type "\"OvertakeApp\""
config *.node[*].appl.*.scalar-recording true
config *.node[*].appl.*.vector-recording true
config *.node[*].appl.overtakeManeuver "\"OvertakeManeuver\""
config *.node[*].protocol_type "\"SimplePlatooningBeaconing\""
config *.node[*].prot.*.scalar-recording true
config *.node[*].prot.*.vector-recording true
config *.node[*].prot.beaconingInterval "0.1 s"
config *.node[*].prot.priority 4
config *.node[*].prot.packetSize 200
config *.node[*].prot.useControllerAcceleration true
config **.traffic_type "\"OvertakeTrafficManager\""
config **.traffic.platoonInsertTime "0.1 s"
config **.traffic.platooningVType "\"vtypeauto\""
config **.numericController 0
config **.traffic.platoonInsertDistance 5m
config **.traffic.platoonInsertHeadway 0s
config **.traffic.platoonLeaderHeadway 1.2s
config **.traffic.platoonASpeed 50kmph
config **.traffic.platoonBSpeed 100kmph
config **.traffic.platoonCSpeed 61kmph
config **.traffic.platoonSizeA 2
config **.traffic.platoonSizeB 1
config **.traffic.platoonSizeC 1
config **.traffic.initialPositionDeltaA 150
config **.traffic.initialPositionDeltaB 50
config **.traffic.initialPositionDeltaC 484
config **.traffic.controller "\"CACC\""
config **.scalar-recording true
config **.vector-recording true

vector 0 Overtake.node[0].mobility posx ETV
vector 1 Overtake.node[0].mobility posy ETV
vector 2 Overtake.node[1].mobility posx ETV
vector 3 Overtake.node[1].mobility posy ETV
vector 4 Overtake.node[2].mobility posx ETV
vector 5 Overtake.node[2].mobility posy ETV
vector 6 Overtake.node[3].mobility posx ETV
vector 7 Overtake.node[3].mobility posy ETV
vector 8 Overtake.node[0].mobility speed ETV
vector 9 Overtake.node[1].mobility speed ETV
vector 10 Overtake.node[2].mobility speed ETV
vector 11 Overtake.node[3].mobility speed ETV
vector 12 Overtake.node[0].mobility acceleration ETV
vector 13 Overtake.node[0].mobility co2emission ETV
vector 14 Overtake.node[1].mobility acceleration ETV
vector 15 Overtake.node[1].mobility co2emission ETV
vector 16 Overtake.node[2].mobility acceleration ETV
vector 17 Overtake.node[2].mobility co2emission ETV
vector 18 Overtake.node[3].mobility acceleration ETV
vector 19 Overtake.node[3].mobility co2emission ETV
vector 20 Overtake.node[0].appl distance ETV
vector 21 Overtake.node[0].appl relativeSpeed ETV
vector 22 Overtake.node[0].appl nodeId ETV
vector 23 Overtake.node[0].appl acceleration ETV
vector 24 Overtake.node[0].appl controllerAcceleration ETV
vector 25 Overtake.node[0].appl speed ETV
vector 26 Overtake.node[0].appl posx ETV
vector 27 Overtake.node[0].appl posy ETV
vector 28 Overtake.node[1].appl distance ETV
vector 29 Overtake.node[1].appl relativeSpeed ETV
vector 30 Overtake.node[1].appl nodeId ETV
vector 31 Overtake.node[1].appl acceleration ETV
vector 32 Overtake.node[1].appl controllerAcceleration ETV
vector 33 Overtake.node[1].appl speed ETV
vector 34 Overtake.node[1].appl posx ETV
vector 35 Overtake.node[1].appl posy ETV
vector 36 Overtake.node[2].appl distance ETV
vector 37 Overtake.node[2].appl relativeSpeed ETV
vector 38 Overtake.node[2].appl nodeId ETV
vector 39 Overtake.node[2].appl acceleration ETV
vector 40 Overtake.node[2].appl controllerAcceleration ETV
vector 41 Overtake.node[2].appl speed ETV
vector 42 Overtake.node[2].appl posx ETV
vector 43 Overtake.node[2].appl posy ETV
vector 44 Overtake.node[3].appl distance ETV
vector 45 Overtake.node[3].appl relativeSpeed ETV
vector 46 Overtake.node[3].appl nodeId ETV
vector 47 Overtake.node[3].appl acceleration ETV
vector 48 Overtake.node[3].appl controllerAcceleration ETV
vector 49 Overtake.node[3].appl speed ETV
vector 50 Overtake.node[3].appl posx ETV
vector 51 Overtake.node[3].appl posy ETV
vector 52 Overtake.node[1].prot leaderDelay ETV
vector 53 Overtake.node[1].prot leaderDelayId ETV
vector 54 Overtake.node[1].prot frontDelay ETV
vector 55 Overtake.node[1].prot frontDelayId ETV
vector 56 Overtake.node[0].prot nodeId ETV
vector 57 Overtake.node[0].prot busyTime ETV
vector 58 Overtake.node[0].prot collisions ETV
vector 59 Overtake.node[1].prot nodeId ETV
vector 60 Overtake.node[1].prot busyTime ETV
vector 61 Overtake.node[1].prot collisions ETV
vector 62 Overtake.node[2].prot nodeId ETV
vector 63 Overtake.node[2].prot busyTime ETV
vector 64 Overtake.node[2].prot collisions ETV
vector 65 Overtake.node[3].prot nodeId ETV
vector 66 Overtake.node[3].prot busyTime ETV
vector 67 Overtake.node[3].prot collisions ETV
48	26	0.21	0.00437036
48	176	0.31	0.00426837
48	326	0.41	0.00410815
48	476	0.51	0.00390303
48	626	0.61	0.00366476
48	776	0.71	0.00340356
48	926	0.81	0.00312825
48	1076	0.91	0.00284628
48	1230	1.01	0.00256392
48	1381	1.11	0.0022863
48	1532	1.21	0.00201755
48	1683	1.31	0.00176089
48	2046	1.41	0.00151876
48	2196	1.51	0.00129289
48	2346	1.61	0.00108441
48	2496	1.71	0.00089393
48	2646	1.81	0.000721638
48	2796	1.91	0.000567355
48	2950	2.01	0.000430614
48	3100	2.11	0.000310715
48	3250	2.21	0.000206783
48	3400	2.31	0.000117814
48	3763	2.41	4.27149e-05
48	3914	2.51	-1.96584e-05
48	4064	2.61	-7.04736e-05
48	4214	2.71	-0.000110896
48	4364	2.81	-0.000142067
48	4514	2.91	-0.00016509
48	4668	3.01	-0.000181016
48	4818	3.11	-0.000190834
48	4968	3.21	-0.000195466
48	5118	3.31	-0.00019576
48	5269	3.41	-0.000192489
48	5676	3.51	-0.000186354
48	5826	3.61	-0.000177979
48	5976	3.71	-0.000167916
48	6126	3.81	-0.000156649
48	6276	3.91	-0.000144597
48	6430	4.01	-0.000132116
48	6580	4.11	-0.000119508
48	6730	4.21	-0.000107021
48	6880	4.31	-9.48587e-05
48	7030	4.41	-8.31796e-05
48	7393	4.51	-7.21068e-05
48	7544	4.61	-6.17299e-05
48	7694	4.71	-5.21101e-05
48	7844	4.81	-4.32839e-05
48	7994	4.91	-3.52669e-05
48	8148	5.01	-2.80577e-05
48	8298	5.11	-2.16404e-05
48	8448	5.21	-1.59878e-05
48	8598	5.31	-1.1064e-05
48	8748	5.41	-6.82631e-06
48	8899	5.51	-3.22748e-06
48	9262	5.61	-2.17307e-07
48	9412	5.71	2.25598e-06
48	9562	5.81	4.24448e-06
48	9712	5.91	5.79961e-06
48	9866	6.01	6.97134e-06
48	10016	6.11	7.80753e-06
48	10166	6.21	8.35346e-06
48	10316	6.31	8.65149e-06
48	10466	6.41	8.7408e-06
48	10616	6.51	8.6573e-06
48	11023	6.61	8.43352e-06
48	11174	6.71	8.09868e-06
48	11324	6.81	7.67874e-06
48	11474	6.91	7.19651e-06
48	11628	7.01	6.67185e-06
48	11778	7.11	6.12177e-06
48	11928	7.21	5.56072e-06
48	12078	7.31	5.00073e-06
48	12228	7.41	4.45164e-06
48	12378	7.51	3.92136e-06
48	12529	7.61	3.41601e-06
48	12892	7.71	2.94018e-06
48	13042	7.81	2.4971e-06
48	13192	7.91	2.08883e-06
48	13346	8.01	1.71644e-06
48	13496	8.11	1.38016e-06
48	13646	8.21	1.07955e-06
48	13796	8.31	8.13576e-07
48	13946	8.41	5.80794e-07
48	14096	8.51	3.79414e-07
48	14246	8.61	2.07408e-07
48	14609	8.71	6.25825e-08
48	14760	8.81	-5.73472e-08
48	14910	8.91	-1.54703e-07
48	15064	9.01	-2.31794e-07
48	15214	9.11	-2.90877e-07
48	15364	9.21	-3.3413e-07
48	15514	9.31	-3.63618e-07
48	15664	9.41	-3.81288e-07
48	15814	9.51	-3.88944e-07
48	15964	9.61	-3.88249e-07
48	16115	9.71	-3.80715e-07
48	16522	9.81	-3.67706e-07
48	16672	9.91	-3.50439e-07
48	16826	10.01	-3.29989e-07
48	16976	10.11	-3.07294e-07
48	17126	10.21	-2.83164e-07
48	17276	10.31	-2.58291e-07
48	17426	10.41	-2.33253e-07
48	17576	10.51	-2.0853e-07
48	17726	10.61	-1.84509e-07
48	17876	10.71	-1.61493e-07
48	18239	10.81	-1.39716e-07
48	18390	10.91	-1.19345e-07
48	18544	11.01	-1.00493e-07
48	18694	11.11	-8.32259e-08
48	18844	11.21	-6.75676e-08
48	18994	11.31	-5.35106e-08
48	19144	11.41	-4.10193e-08
48	19294	11.51	-3.00361e-08
48	19444	11.61	-2.04874e-08
48	19594	11.71	-1.22867e-08
48	19745	11.81	-5.33902e-09
48	20108	11.91	4.56524e-10
48	20262	12.01	5.20259e-09
48	20412	12.11	9.00258e-09
48	20562	12.21	1.19588e-08
48	20712	12.31	1.41693e-08
48	20862	12.41	1.57286e-08
48	21012	12.51	1.67255e-08
48	21162	12.61	1.72435e-08
48	21312	12.71	1.73589e-08
48	21462	12.81	1.71426e-08
48	21845	12.91	1.66573e-08
48	22000	13.01	1.59606e-08
48	22150	13.11	1.51029e-08
48	22300	13.21	1.41284e-08
48	22450	13.31	1.30754e-08
48	22600	13.41	1.19773e-08
48	22750	13.51	1.08614e-08
48	22900	13.61	9.75113e-09
48	23050	13.71	8.66542e-09
48	23200	13.81	7.61951e-09
48	23351	13.91	6.62475e-09
48	23738	14.01	5.69003e-09
48	23888	14.11	4.82103e-09
48	24038	14.21	4.02167e-09
48	24188	14.31	3.29372e-09
48	24338	14.41	2.63753e-09
48	24488	14.51	2.05205e-09
48	24638	14.61	1.53477e-09
48	24788	14.71	1.08287e-09
48	24938	14.81	6.92779e-10
48	25088	14.91	3.606e-10
48	25242	15.01	8.13571e-11
48	25392	15.11	-1.49214e-10
48	25542	15.21	-3.35731e-10
48	25692	15.31	-4.82459e-10
48	25842	15.41	-5.94369e-10
48	25992	15.51	-6.75726e-10
48	26142	15.61	-7.30083e-10
48	26292	15.71	-7.61702e-10
48	26442	15.81	-7.73781e-10
48	26592	15.91	-7.70228e-10
48	26746	16.01	-7.53175e-10
48	26896	16.11	-7.25819e-10
48	27046	16.21	-6.90292e-10
48	27196	16.31	-6.48726e-10
48	27346	16.41	-6.03251e-10
48	27496	16.51	-5.54934e-10
48	27646	16.61	-5.05196e-10
48	27796	16.71	-4.55458e-10
48	27946	16.81	-4.0643e-10
48	28096	16.91	-3.58824e-10
48	28250	17.01	-3.13349e-10
48	28400	17.11	-2.70717e-10
48	28550	17.21	-2.30571e-10
48	28700	17.31	-1.93623e-10
48	28850	17.41	-1.59872e-10
48	29000	17.51	-1.29319e-10
48	29150	17.61	-1.01963e-10
48	29300	17.71	-7.78044e-11
48	29450	17.81	-5.64881e-11
48	29600	17.91	-3.8014e-11
48	29754	18.01	-2.20268e-11
48	29904	18.11	-8.88178e-12
48	30054	18.21	2.4869e-12
48	30204	18.31	1.13687e-11
48	30354	18.41	1.88294e-11
48	30504	18.51	2.45137e-11
48	30654	18.61	2.8777e-11
48	30804	18.71	3.16192e-11
48	30954	18.81	3.33955e-11
48	31104	18.91	3.44613e-11
48	31258	19.01	3.44613e-11
48	31408	19.11	3.41061e-11
48	31558	19.21	3.30402e-11
48	31708	19.31	3.16192e-11
48	31858	19.41	3.01981e-11
48	32008	19.51	2.80664e-11
48	32158	19.61	2.59348e-11
48	32308	19.71	2.41585e-11
48	32458	19.81	2.20268e-11
48	32608	19.91	1.98952e-11
48	32762	20.01	1.77636e-11
48	32912	20.11	1.59872e-11
48	33062	20.21	1.38556e-11
48	33212	20.31	1.1724e-11
48	33362	20.41	9.9476e-12
48	33512	20.51	8.17124e-12
48	33662	20.61	6.39488e-12
48	33812	20.71	4.9738e-12
48	33962	20.81	3.55271e-12
48	34112	20.91	2.4869e-12
48	34266	21.01	1.42109e-12
48	34416	21.11	3.55271e-13
48	34566	21.21	-3.55271e-13
48	34716	21.31	-1.42109e-12
48	34866	21.41	-2.13163e-12
48	35016	21.51	-2.84217e-12
48	35166	21.61	-3.19744e-12
48	35316	21.71	-3.90799e-12
48	35466	21.81	-4.26326e-12
48	35616	21.91	-4.61853e-12
48	35770	22.01	-4.9738e-12
48	35920	22.11	-5.32907e-12
48	36070	22.21	-5.68434e-12
48	36220	22.31	-6.03961e-12
48	36370	22.41	-6.39488e-12
48	36520	22.51	-6.75016e-12
48	36670	22.61	-6.75016e-12
48	36820	22.71	-7.10543e-12
48	36970	22.81	-7.10543e-12
48	37120	22.91	-7.4607e-12
48	37274	23.01	-7.4607e-12
48	37424	23.11	-7.81597e-12
48	37574	23.21	-7.81597e-12
48	37724	23.31	-7.81597e-12
48	37874	23.41	-7.81597e-12
48	38024	23.51	-8.17124e-12
48	38174	23.61	-8.17124e-12
48	38324	23.71	-8.17124e-12
48	38474	23.81	-8.17124e-12
48	38624	23.91	-8.17124e-12
48	38778	24.01	-8.52651e-12
48	38928	24.11	-8.52651e-12
48	39078	24.21	-8.52651e-12
48	39228	24.31	-8.52651e-12
48	39378	24.41	-8.52651e-12
48	39528	24.51	-8.52651e-12
48	39678	24.61	-8.52651e-12
48	39828	24.71	-8.52651e-12
48	39978	24.81	-8.52651e-12
48	40128	24.91	-8.52651e-12
48	40282	25.01	-8.88178e-12
48	40432	25.11	-8.88178e-12
48	40582	25.21	-8.88178e-12
48	40732	25.31	-8.88178e-12
48	40882	25.41	-8.88178e-12
48	41032	25.51	-8.88178e-12
48	41182	25.61	-8.88178e-12
48	41333	25.71	-8.88178e-12
48	41483	25.81	-8.88178e-12
48	41633	25.91	-8.88178e-12
48	41787	26.01	-8.88178e-12
48	41937	26.11	-8.88178e-12
48	42087	26.21	-8.88178e-12
48	42237	26.31	-8.88178e-12
48	42387	26.41	-8.88178e-12
48	42537	26.51	-8.88178e-12
48	42687	26.61	-8.88178e-12
48	42837	26.71	-8.88178e-12
48	42987	26.81	-8.88178e-12
48	43137	26.91	-8.88178e-12
48	43291	27.01	-8.88178e-12
48	43441	27.11	-8.88178e-12
48	43591	27.21	-8.88178e-12
48	43741	27.31	-8.88178e-12
48	43891	27.41	-8.88178e-12
48	44041	27.51	-8.88178e-12
48	44191	27.61	-8.88178e-12
48	44341	27.71	-8.88178e-12
48	44491	27.81	-8.88178e-12
48	44641	27.91	-8.88178e-12
48	44795	28.01	-8.88178e-12
48	44945	28.11	-8.88178e-12
48	45095	28.21	-8.88178e-12
48	45245	28.31	-8.88178e-12
48	45395	28.41	-8.88178e-12
48	45545	28.51	-8.88178e-12
48	45695	28.61	-8.88178e-12
48	45845	28.71	-8.88178e-12
48	45995	28.81	-8.88178e-12
48	46145	28.91	-8.88178e-12
48	46299	29.01	-8.88178e-12
48	46449	29.11	-8.88178e-12
48	46599	29.21	-8.88178e-12
48	46749	29.31	-8.88178e-12
48	46899	29.41	-8.88178e-12
48	47049	29.51	-8.88178e-12
48	47199	29.61	-8.88178e-12
48	47349	29.71	-8.88178e-12
48	47499	29.81	-8.88178e-12
48	47649	29.91	-8.88178e-12
48	47803	30.01	-8.88178e-12
48	47953	30.11	-8.88178e-12
48	48103	30.21	-8.88178e-12
48	48253	30.31	-8.88178e-12
48	48403	30.41	-8.88178e-12
48	48553	30.51	-8.88178e-12
47	26	0.21	0.000716383
47	176	0.31	0.00136341
47	326	0.41	0.00186974
47	476	0.51	0.00225157
47	626	0.61	0.00252443
47	776	0.71	0.00270298
47	926	0.81	0.00280098
47	1076	0.91	0.00283113
47	1230	1.01	0.00280509
47	1381	1.11	0.00273342
47	1532	1.21	0.00262559
47	1683	1.31	0.00249005
47	2046	1.41	0.00233419
47	2196	1.51	0.00216447
47	2346	1.61	0.00198642
47	2496	1.71	0.00180472
47	2646	1.81	0.0016233
47	2796	1.91	0.00144536
47	2950	2.01	0.00127346
47	3100	2.11	0.0011096
47	3250	2.21	0.000955278
47	3400	2.31	0.000811546
47	3763	2.41	0.00067908
47	3914	2.51	0.000558232
47	4064	2.61	0.000449082
47	4214	2.71	0.000351487
47	4364	2.81	0.00026512
47	4514	2.91	0.000189514
47	4668	3.01	0.000124092
47	4818	3.11	6.81972e-05
47	4968	3.21	2.11209e-05
47	5118	3.31	-1.78769e-05
47	5269	3.41	-4.9548e-05
47	5676	3.51	-7.46407e-05
47	5826	3.61	-9.38867e-05
47	5976	3.71	-0.000107991
47	6126	3.81	-0.000117625
47	6276	3.91	-0.000123418
47	6430	4.01	-0.000125957
47	6580	4.11	-0.000125781
47	6730	4.21	-0.00012338
47	6880	4.31	-0.000119198
47	7030	4.41	-0.000113629
47	7393	4.51	-0.000107022
47	7544	4.61	-9.96832e-05
47	7694	4.71	-9.18747e-05
47	7844	4.81	-8.38211e-05
47	7994	4.91	-7.57109e-05
47	8148	5.01	-6.76999e-05
47	8298	5.11	-5.99137e-05
47	8448	5.21	-5.24518e-05
47	8598	5.31	-4.53896e-05
47	8748	5.41	-3.87821e-05
47	8899	5.51	-3.2666e-05
47	9262	5.61	-2.70628e-05
47	9412	5.71	-2.19809e-05
47	9562	5.81	-1.74176e-05
47	9712	5.91	-1.33618e-05
47	9866	6.01	-9.79494e-06
47	10016	6.11	-6.6932e-06
47	10166	6.21	-4.02864e-06
47	10316	6.31	-1.77051e-06
47	10466	6.41	1.13691e-07
47	10616	6.51	1.65736e-06
47	11023	6.61	2.89397e-06
47	11174	6.71	3.85652e-06
47	11324	6.81	4.57698e-06
47	11474	6.91	5.08591e-06
47	11628	7.01	5.41219e-06
47	11778	7.11	5.58279e-06
47	11928	7.21	5.6226e-06
47	12078	7.31	5.55442e-06
47	12228	7.41	5.39886e-06
47	12378	7.51	5.17441e-06
47	12529	7.61	4.89748e-06
47	12892	7.71	4.58246e-06
47	13042	7.81	4.24184e-06
47	13192	7.91	3.88634e-06
47	13346	8.01	3.52499e-06
47	13496	8.11	3.16534e-06
47	13646	8.21	2.81353e-06
47	13796	8.31	2.47446e-06
47	13946	8.41	2.15192e-06
47	14096	8.51	1.84873e-06
47	14246	8.61	1.56685e-06
47	14609	8.71	1.30751e-06
47	14760	8.81	1.0713e-06
47	14910	8.91	8.58321e-07
47	15064	9.01	6.68206e-07
47	15214	9.11	5.0026e-07
47	15364	9.21	3.53514e-07
47	15514	9.31	2.2679e-07
47	15664	9.41	1.18765e-07
47	15814	9.51	2.80163e-08
47	15964	9.61	-4.6931e-08
47	16115	9.71	-1.07573e-07
47	16522	9.81	-1.55391e-07
47	16672	9.91	-1.91831e-07
47	16826	10.01	-2.18284e-07
47	16976	10.11	-2.3607e-07
47	17126	10.21	-2.46427e-07
47	17276	10.31	-2.50502e-07
47	17426	10.41	-2.49353e-07
47	17576	10.51	-2.43938e-07
47	17726	10.61	-2.3512e-07
47	17876	10.71	-2.23669e-07
47	18239	10.81	-2.10264e-07
47	18390	10.91	-1.95496e-07
47	18544	11.01	-1.79874e-07
47	18694	11.11	-1.63833e-07
47	18844	11.21	-1.47736e-07
47	18994	11.31	-1.3188e-07
47	19144	11.41	-1.16508e-07
47	19294	11.51	-1.01807e-07
47	19444	11.61	-8.79222e-08
47	19594	11.71	-7.49541e-08
47	19745	11.81	-6.29711e-08
47	20108	11.91	-5.20114e-08
47	20262	12.01	-4.20883e-08
47	20412	12.11	-3.3193e-08
47	20562	12.21	-2.53003e-08
47	20712	12.31	-1.83718e-08
47	20862	12.41	-1.23581e-08
47	21012	12.51	-7.20348e-09
47	21162	12.61	-2.84537e-09
47	21312	12.71	7.80886e-10
47	21462	12.81	3.74136e-09
47	21845	12.91	6.10285e-09
47	22000	13.01	7.93072e-09
47	22150	13.11	9.28821e-09
47	22300	13.21	1.0235e-08
47	22450	13.31	1.08283e-08
47	22600	13.41	1.11211e-08
47	22750	13.51	1.11612e-08
47	22900	13.61	1.09946e-08
47	23050	13.71	1.06599e-08
47	23200	13.81	1.01945e-08
47	23351	13.91	9.62999e-09
47	23738	14.01	8.99405e-09
47	23888	14.11	8.31086e-09
47	24038	14.21	7.60103e-09
47	24188	14.31	6.88338e-09
47	24338	14.41	6.17071e-09
47	24488	14.51	5.47544e-09
47	24638	14.61	4.80682e-09
47	24788	14.71	4.17266e-09
47	24938	14.81	3.57687e-09
47	25088	14.91	3.02443e-09
47	25242	15.01	2.51674e-09
47	25392	15.11	2.05489e-09
47	25542	15.21	1.63958e-09
47	25692	15.31	1.26903e-09
47	25842	15.41	9.42535e-10
47	25992	15.51	6.57963e-10
47	26142	15.61	4.1247e-10
47	26292	15.71	2.04636e-10
47	26442	15.81	2.91323e-11
47	26592	15.91	-1.14753e-10
47	26746	16.01	-2.30926e-10
47	26896	16.11	-3.22231e-10
47	27046	16.21	-3.91154e-10
47	27196	16.31	-4.40892e-10
47	27346	16.41	-4.73577e-10
47	27496	16.51	-4.92051e-10
47	27646	16.61	-4.98446e-10
47	27796	16.71	-4.94893e-10
47	27946	16.81	-4.82814e-10
47	28096	16.91	-4.6434e-10
47	28250	17.01	-4.40892e-10
47	28400	17.11	-4.13536e-10
47	28550	17.21	-3.83693e-10
47	28700	17.31	-3.51719e-10
47	28850	17.41	-3.19744e-10
47	29000	17.51	-2.8777e-10
47	29150	17.61	-2.55795e-10
47	29300	17.71	-2.25953e-10
47	29450	17.81	-1.97531e-10
47	29600	17.91	-1.6982e-10
47	29754	18.01	-1.44951e-10
47	29904	18.11	-1.21503e-10
47	30054	18.21	-1.00187e-10
47	30204	18.31	-8.10019e-11
47	30354	18.41	-6.32383e-11
47	30504	18.51	-4.86722e-11
47	30654	18.61	-3.44613e-11
47	30804	18.71	-2.34479e-11
47	30954	18.81	-1.27898e-11
47	31104	18.91	-4.9738e-12
47	31258	19.01	2.13163e-12
47	31408	19.11	8.17124e-12
47	31558	19.21	1.1724e-11
47	31708	19.31	1.52767e-11
47	31858	19.41	1.88294e-11
47	32008	19.51	2.02505e-11
47	32158	19.61	2.02505e-11
47	32308	19.71	2.02505e-11
47	32458	19.81	2.02505e-11
47	32608	19.91	2.02505e-11
47	32762	20.01	2.02505e-11
47	32912	20.11	2.02505e-11
47	33062	20.21	2.02505e-11
47	33212	20.31	2.02505e-11
47	33362	20.41	1.88294e-11
47	33512	20.51	1.7053e-11
47	33662	20.61	1.52767e-11
47	33812	20.71	1.38556e-11
47	33962	20.81	1.24345e-11
47	34112	20.91	1.13687e-11
47	34266	21.01	1.03029e-11
47	34416	21.11	9.23706e-12
47	34566	21.21	8.52651e-12
47	34716	21.31	7.4607e-12
47	34866	21.41	6.75016e-12
47	35016	21.51	6.03961e-12
47	35166	21.61	5.68434e-12
47	35316	21.71	4.9738e-12
47	35466	21.81	4.61853e-12
47	35616	21.91	4.26326e-12
47	35770	22.01	3.90799e-12
47	35920	22.11	3.55271e-12
47	36070	22.21	3.19744e-12
47	36220	22.31	2.84217e-12
47	36370	22.41	2.4869e-12
47	36520	22.51	2.13163e-12
47	36670	22.61	2.13163e-12
47	36820	22.71	1.77636e-12
47	36970	22.81	1.77636e-12
47	37120	22.91	1.42109e-12
47	37274	23.01	1.42109e-12
47	37424	23.11	1.06581e-12
47	37574	23.21	1.06581e-12
47	37724	23.31	1.06581e-12
47	37874	23.41	1.06581e-12
47	38024	23.51	7.10543e-13
47	38174	23.61	7.10543e-13
47	38324	23.71	7.10543e-13
47	38474	23.81	7.10543e-13
47	38624	23.91	7.10543e-13
47	38778	24.01	3.55271e-13
47	38928	24.11	3.55271e-13
47	39078	24.21	3.55271e-13
47	39228	24.31	3.55271e-13
47	39378	24.41	3.55271e-13
47	39528	24.51	3.55271e-13
47	39678	24.61	3.55271e-13
47	39828	24.71	3.55271e-13
47	39978	24.81	3.55271e-13
47	40128	24.91	3.55271e-13
47	40282	25.01	0
47	40432	25.11	0
47	40582	25.21	0
47	40732	25.31	0
47	40882	25.41	0
47	41032	25.51	0
47	41182	25.61	0
47	41333	25.71	0
47	41483	25.81	0
47	41633	25.91	0
47	41787	26.01	0
47	41937	26.11	0
47	42087	26.21	0
47	42237	26.31	0
47	42387	26.41	0
47	42537	26.51	0
47	42687	26.61	0
47	42837	26.71	0
47	42987	26.81	0
47	43137	26.91	0
47	43291	27.01	0
47	43441	27.11	0
47	43591	27.21	0
47	43741	27.31	0
47	43891	27.41	0
47	44041	27.51	0
47	44191	27.61	0
47	44341	27.71	0
47	44491	27.81	0
47	44641	27.91	0
47	44795	28.01	0
47	44945	28.11	0
47	45095	28.21	0
47	45245	28.31	0
47	45395	28.41	0
47	45545	28.51	0
47	45695	28.61	0
47	45845	28.71	0
47	45995	28.81	0
47	46145	28.91	0
47	46299	29.01	0
47	46449	29.11	0
47	46599	29.21	0
47	46749	29.31	0
47	46899	29.41	0
47	47049	29.51	0
47	47199	29.61	0
47	47349	29.71	0
47	47499	29.81	0
47	47649	29.91	0
47	47803	30.01	0
47	47953	30.11	0
47	48103	30.21	0
47	48253	30.31	0
47	48403	30.41	0
47	48553	30.51	0
51	26	0.21	1.6
51	176	0.31	1.6
51	326	0.41	1.6
51	476	0.51	1.6
51	626	0.61	1.6
51	776	0.71	1.6
51	926	0.81	1.6
51	1076	0.91	1.6
51	1230	1.01	1.6
51	1381	1.11	1.6
51	1532	1.21	1.6
51	1683	1.31	1.6
51	2046	1.41	1.6
51	2196	1.51	1.6
51	2346	1.61	1.6
51	2496	1.71	1.6
51	2646	1.81	1.6
51	2796	1.91	1.6
51	2950	2.01	1.6
51	3100	2.11	1.6
51	3250	2.21	1.6
51	3400	2.31	1.6
51	3763	2.41	1.6
51	3914	2.51	1.6
51	4064	2.61	1.6
51	4214	2.71	1.6
51	4364	2.81	1.6
51	4514	2.91	1.6
51	4668	3.01	1.6
51	4818	3.11	1.6
51	4968	3.21	1.6
51	5118	3.31	1.6
51	5269	3.41	1.6
51	5676	3.51	1.6
51	5826	3.61	1.6
51	5976	3.71	1.6
51	6126	3.81	1.6
51	6276	3.91	1.6
51	6430	4.01	1.6
51	6580	4.11	1.6
51	6730	4.21	1.6
51	6880	4.31	1.6
51	7030	4.41	1.6
51	7393	4.51	1.6
51	7544	4.61	1.6
51	7694	4.71	1.6
51	7844	4.81	1.6
51	7994	4.91	1.6
51	8148	5.01	1.6
51	8298	5.11	1.6
51	8448	5.21	1.6
51	8598	5.31	1.6
51	8748	5.41	1.6
51	8899	5.51	1.6
51	9262	5.61	1.6
51	9412	5.71	1.6
51	9562	5.81	1.6
51	9712	5.91	1.6
51	9866	6.01	1.6
51	10016	6.11	1.6
51	10166	6.21	1.6
51	10316	6.31	1.6
51	10466	6.41	1.6
51	10616	6.51	1.6
51	11023	6.61	1.6
51	11174	6.71	1.6
51	11324	6.81	1.6
51	11474	6.91	1.6
51	11628	7.01	1.6
51	11778	7.11	1.6
51	11928	7.21	1.6
51	12078	7.31	1.6
51	12228	7.41	1.6
51	12378	7.51	1.6
51	12529	7.61	1.6
51	12892	7.71	1.6
51	13042	7.81	1.6
51	13192	7.91	1.6
51	13346	8.01	1.6
51	13496	8.11	1.6
51	13646	8.21	1.6
51	13796	8.31	1.6
51	13946	8.41	1.6
51	14096	8.51	1.6
51	14246	8.61	1.6
51	14609	8.71	1.6
51	14760	8.81	1.6
51	14910	8.91	1.6
51	15064	9.01	1.6
51	15214	9.11	1.6
51	15364	9.21	1.6
51	15514	9.31	1.6
51	15664	9.41	1.6
51	15814	9.51	1.6
51	15964	9.61	1.6
51	16115	9.71	1.6
51	16522	9.81	1.6
51	16672	9.91	1.6
51	16826	10.01	1.6
51	16976	10.11	1.6
51	17126	10.21	1.6
51	17276	10.31	1.6
51	17426	10.41	1.6
51	17576	10.51	1.6
51	17726	10.61	1.6
51	17876	10.71	1.6
51	18239	10.81	1.6
51	18390	10.91	1.6
51	18544	11.01	1.6
51	18694	11.11	1.6
51	18844	11.21	1.6
51	18994	11.31	1.6
51	19144	11.41	1.6
51	19294	11.51	1.6
51	19444	11.61	1.6
51	19594	11.71	1.6
51	19745	11.81	1.6
51	20108	11.91	1.6
51	20262	12.01	1.6
51	20412	12.11	1.6
51	20562	12.21	1.6
51	20712	12.31	1.6
51	20862	12.41	1.6
51	21012	12.51	1.6
51	21162	12.61	1.6
51	21312	12.71	1.6
51	21462	12.81	1.6
51	21845	12.91	1.6
51	22000	13.01	1.6
51	22150	13.11	1.6
51	22300	13.21	1.6
51	22450	13.31	1.6
51	22600	13.41	1.6
51	22750	13.51	1.6
51	22900	13.61	1.6
51	23050	13.71	1.6
51	23200	13.81	1.6
51	23351	13.91	1.6
51	23738	14.01	1.6
51	23888	14.11	1.6
51	24038	14.21	1.6
51	24188	14.31	1.6
51	24338	14.41	1.6
51	24488	14.51	1.6
51	24638	14.61	1.6
51	24788	14.71	1.6
51	24938	14.81	1.6
51	25088	14.91	1.6
51	25242	15.01	1.6
51	25392	15.11	1.6
51	25542	15.21	1.6
51	25692	15.31	1.6
51	25842	15.41	1.6
51	25992	15.51	1.6
51	26142	15.61	1.6
51	26292	15.71	1.6
51	26442	15.81	1.6
51	26592	15.91	1.6
51	26746	16.01	1.6
51	26896	16.11	1.6
51	27046	16.21	1.6
51	27196	16.31	1.6
51	27346	16.41	1.6
51	27496	16.51	1.6
51	27646	16.61	1.6
51	27796	16.71	1.6
51	27946	16.81	1.6
51	28096	16.91	1.6
51	28250	17.01	1.6
51	28400	17.11	1.6
51	28550	17.21	1.6
51	28700	17.31	1.6
51	28850	17.41	1.6
51	29000	17.51	1.6
51	29150	17.61	1.6
51	29300	17.71	1.6
51	29450	17.81	1.6
51	29600	17.91	1.6
51	29754	18.01	1.6
51	29904	18.11	1.6
51	30054	18.21	1.6
51	30204	18.31	1.6
51	30354	18.41	1.6
51	30504	18.51	1.6
51	30654	18.61	1.6
51	30804	18.71	1.6
51	30954	18.81	1.6
51	31104	18.91	1.6
51	31258	19.01	1.6
51	31408	19.11	1.6
51	31558	19.21	1.6
51	31708	19.31	1.6
51	31858	19.41	1.6
51	32008	19.51	1.6
51	32158	19.61	1.6
51	32308	19.71	1.6
51	32458	19.81	1.6
51	32608	19.91	1.6
51	32762	20.01	1.6
51	32912	20.11	1.6
51	33062	20.21	1.6
51	33212	20.31	1.6
51	33362	20.41	1.6
51	33512	20.51	1.6
51	33662	20.61	1.6
51	33812	20.71	1.6
51	33962	20.81	1.6
51	34112	20.91	1.6
51	34266	21.01	1.6
51	34416	21.11	1.6
51	34566	21.21	1.6
51	34716	21.31	1.6
51	34866	21.41	1.6
51	35016	21.51	1.6
51	35166	21.61	1.6
51	35316	21.71	1.6
51	35466	21.81	1.6
51	35616	21.91	1.6
51	35770	22.01	1.6
51	35920	22.11	1.6
51	36070	22.21	1.6
51	36220	22.31	1.6
51	36370	22.41	1.6
51	36520	22.51	1.6
51	36670	22.61	1.6
51	36820	22.71	1.6
51	36970	22.81	1.6
51	37120	22.91	1.6
51	37274	23.01	1.6
51	37424	23.11	1.6
51	37574	23.21	1.6
51	37724	23.31	1.6
51	37874	23.41	1.6
51	38024	23.51	1.6
51	38174	23.61	1.6
51	38324	23.71	1.6
51	38474	23.81	1.6
51	38624	23.91	1.6
51	38778	24.01	1.6
51	38928	24.11	1.6
51	39078	24.21	1.6
51	39228	24.31	1.6
51	39378	24.41	1.6
51	39528	24.51	1.6
51	39678	24.61	1.6
51	39828	24.71	1.6
51	39978	24.81	1.6
51	40128	24.91	1.6
51	40282	25.01	1.6
51	40432	25.11	1.6
51	40582	25.21	1.6
51	40732	25.31	1.6
51	40882	25.41	1.6
51	41032	25.51	1.6
51	41182	25.61	1.6
51	41333	25.71	1.6
51	41483	25.81	1.6
51	41633	25.91	1.6
51	41787	26.01	1.6
51	41937	26.11	1.6
51	42087	26.21	1.6
51	42237	26.31	1.6
51	42387	26.41	1.6
51	42537	26.51	1.6
51	42687	26.61	1.6
51	42837	26.71	1.6
51	42987	26.81	1.6
51	43137	26.91	1.6
51	43291	27.01	1.6
51	43441	27.11	1.6
51	43591	27.21	1.6
51	43741	27.31	1.6
51	43891	27.41	1.6
51	44041	27.51	1.6
51	44191	27.61	1.6
51	44341	27.71	1.6
51	44491	27.81	1.6
51	44641	27.91	1.6
51	44795	28.01	1.6
51	44945	28.11	1.6
51	45095	28.21	1.6
51	45245	28.31	1.6
51	45395	28.41	1.6
51	45545	28.51	1.6
51	45695	28.61	1.6
51	45845	28.71	1.6
51	45995	28.81	1.6
51	46145	28.91	1.6
51	46299	29.01	1.6
51	46449	29.11	1.6
51	46599	29.21	1.6
51	46749	29.31	1.6
51	46899	29.41	1.6
51	47049	29.51	1.6
51	47199	29.61	1.6
51	47349	29.71	1.6
51	47499	29.81	1.6
51	47649	29.91	1.6
51	47803	30.01	1.6
51	47953	30.11	1.6
51	48103	30.21	1.6
51	48253	30.31	1.6
51	48403	30.41	1.6
51	48553	30.51	1.6
50	26	0.21	514.475
50	176	0.31	512.781
50	326	0.41	511.087
50	476	0.51	509.393
50	626	0.61	507.699
50	776	0.71	506.005
50	926	0.81	504.311
50	1076	0.91	502.617
50	1230	1.01	500.923
50	1381	1.11	499.229
50	1532	1.21	497.534
50	1683	1.31	495.84
50	2046	1.41	494.146
50	2196	1.51	492.451
50	2346	1.61	490.757
50	2496	1.71	489.063
50	2646	1.81	487.368
50	2796	1.91	485.674
50	2950	2.01	483.98
50	3100	2.11	482.285
50	3250	2.21	480.591
50	3400	2.31	478.896
50	3763	2.41	477.202
50	3914	2.51	475.508
50	4064	2.61	473.813
50	4214	2.71	472.119
50	4364	2.81	470.424
50	4514	2.91	468.73
50	4668	3.01	467.035
50	4818	3.11	465.341
50	4968	3.21	463.646
50	5118	3.31	461.952
50	5269	3.41	460.257
50	5676	3.51	458.563
50	5826	3.61	456.869
50	5976	3.71	455.174
50	6126	3.81	453.48
50	6276	3.91	451.785
50	6430	4.01	450.091
50	6580	4.11	448.396
50	6730	4.21	446.702
50	6880	4.31	445.007
50	7030	4.41	443.313
50	7393	4.51	441.618
50	7544	4.61	439.924
50	7694	4.71	438.23
50	7844	4.81	436.535
50	7994	4.91	434.841
50	8148	5.01	433.146
50	8298	5.11	431.452
50	8448	5.21	429.757
50	8598	5.31	428.063
50	8748	5.41	426.368
50	8899	5.51	424.674
50	9262	5.61	422.98
50	9412	5.71	421.285
50	9562	5.81	419.591
50	9712	5.91	417.896
50	9866	6.01	416.202
50	10016	6.11	414.507
50	10166	6.21	412.813
50	10316	6.31	411.119
50	10466	6.41	409.424
50	10616	6.51	407.73
50	11023	6.61	406.035
50	11174	6.71	404.341
50	11324	6.81	402.646
50	11474	6.91	400.952
50	11628	7.01	399.257
50	11778	7.11	397.563
50	11928	7.21	395.869
50	12078	7.31	394.174
50	12228	7.41	392.48
50	12378	7.51	390.785
50	12529	7.61	389.091
50	12892	7.71	387.396
50	13042	7.81	385.702
50	13192	7.91	384.008
50	13346	8.01	382.313
50	13496	8.11	380.619
50	13646	8.21	378.924
50	13796	8.31	377.23
50	13946	8.41	375.535
50	14096	8.51	373.841
50	14246	8.61	372.146
50	14609	8.71	370.452
50	14760	8.81	368.758
50	14910	8.91	367.063
50	15064	9.01	365.369
50	15214	9.11	363.674
50	15364	9.21	361.98
50	15514	9.31	360.285
50	15664	9.41	358.591
50	15814	9.51	356.896
50	15964	9.61	355.202
50	16115	9.71	353.508
50	16522	9.81	351.813
50	16672	9.91	350.119
50	16826	10.01	348.424
50	16976	10.11	346.73
50	17126	10.21	345.035
50	17276	10.31	343.341
50	17426	10.41	341.647
50	17576	10.51	339.952
50	17726	10.61	338.258
50	17876	10.71	336.563
50	18239	10.81	334.869
50	18390	10.91	333.174
50	18544	11.01	331.48
50	18694	11.11	329.785
50	18844	11.21	328.091
50	18994	11.31	326.397
50	19144	11.41	324.702
50	19294	11.51	323.008
50	19444	11.61	321.313
50	19594	11.71	319.619
50	19745	11.81	317.924
50	20108	11.91	316.23
50	20262	12.01	314.535
50	20412	12.11	312.841
50	20562	12.21	311.147
50	20712	12.31	309.452
50	20862	12.41	307.758
50	21012	12.51	306.063
50	21162	12.61	304.369
50	21312	12.71	302.674
50	21462	12.81	300.98
50	21845	12.91	299.286
50	22000	13.01	297.591
50	22150	13.11	295.897
50	22300	13.21	294.202
50	22450	13.31	292.508
50	22600	13.41	290.813
50	22750	13.51	289.119
50	22900	13.61	287.424
50	23050	13.71	285.73
50	23200	13.81	284.036
50	23351	13.91	282.341
50	23738	14.01	280.647
50	23888	14.11	278.952
50	24038	14.21	277.258
50	24188	14.31	275.563
50	24338	14.41	273.869
50	24488	14.51	272.174
50	24638	14.61	270.48
50	24788	14.71	268.786
50	24938	14.81	267.091
50	25088	14.91	265.397
50	25242	15.01	263.702
50	25392	15.11	262.008
50	25542	15.21	260.313
50	25692	15.31	258.619
50	25842	15.41	256.925
50	25992	15.51	255.23
50	26142	15.61	253.536
50	26292	15.71	251.841
50	26442	15.81	250.147
50	26592	15.91	248.452
50	26746	16.01	246.758
50	26896	16.11	245.063
50	27046	16.21	243.369
50	27196	16.31	241.675
50	27346	16.41	239.98
50	27496	16.51	238.286
50	27646	16.61	236.591
50	27796	16.71	234.897
50	27946	16.81	233.202
50	28096	16.91	231.508
50	28250	17.01	229.813
50	28400	17.11	228.119
50	28550	17.21	226.425
50	28700	17.31	224.73
50	28850	17.41	223.036
50	29000	17.51	221.341
50	29150	17.61	219.647
50	29300	17.71	217.952
50	29450	17.81	216.258
50	29600	17.91	214.564
50	29754	18.01	212.869
50	29904	18.11	211.175
50	30054	18.21	209.48
50	30204	18.31	207.786
50	30354	18.41	206.091
50	30504	18.51	204.397
50	30654	18.61	202.702
50	30804	18.71	201.008
50	30954	18.81	199.314
50	31104	18.91	197.619
50	31258	19.01	195.925
50	31408	19.11	194.23
50	31558	19.21	192.536
50	31708	19.31	190.841
50	31858	19.41	189.147
50	32008	19.51	187.452
50	32158	19.61	185.758
50	32308	19.71	184.064
50	32458	19.81	182.369
50	32608	19.91	180.675
50	32762	20.01	178.98
50	32912	20.11	177.286
50	33062	20.21	175.591
50	33212	20.31	173.897
50	33362	20.41	172.203
50	33512	20.51	170.508
50	33662	20.61	168.814
50	33812	20.71	167.119
50	33962	20.81	165.425
50	34112	20.91	163.73
50	34266	21.01	162.036
50	34416	21.11	160.341
50	34566	21.21	158.647
50	34716	21.31	156.953
50	34866	21.41	155.258
50	35016	21.51	153.564
50	35166	21.61	151.869
50	35316	21.71	150.175
50	35466	21.81	148.48
50	35616	21.91	146.786
50	35770	22.01	145.091
50	35920	22.11	143.397
50	36070	22.21	141.703
50	36220	22.31	140.008
50	36370	22.41	138.314
50	36520	22.51	136.619
50	36670	22.61	134.925
50	36820	22.71	133.23
50	36970	22.81	131.536
50	37120	22.91	129.842
50	37274	23.01	128.147
50	37424	23.11	126.453
50	37574	23.21	124.758
50	37724	23.31	123.064
50	37874	23.41	121.369
50	38024	23.51	119.675
50	38174	23.61	117.98
50	38324	23.71	116.286
50	38474	23.81	114.592
50	38624	23.91	112.897
50	38778	24.01	111.203
50	38928	24.11	109.508
50	39078	24.21	107.814
50	39228	24.31	106.119
50	39378	24.41	104.425
50	39528	24.51	102.73
50	39678	24.61	101.036
50	39828	24.71	99.3416
50	39978	24.81	97.6471
50	40128	24.91	95.9527
50	40282	25.01	94.2583
50	40432	25.11	92.5638
50	40582	25.21	90.8694
50	40732	25.31	89.1749
50	40882	25.41	87.4805
50	41032	25.51	85.7861
50	41182	25.61	84.0916
50	41333	25.71	82.3972
50	41483	25.81	80.7027
50	41633	25.91	79.0083
50	41787	26.01	77.3139
50	41937	26.11	75.6194
50	42087	26.21	73.925
50	42237	26.31	72.2305
50	42387	26.41	70.5361
50	42537	26.51	68.8417
50	42687	26.61	67.1472
50	42837	26.71	65.4528
50	42987	26.81	63.7583
50	43137	26.91	62.0639
50	43291	27.01	60.3695
50	43441	27.11	58.675
50	43591	27.21	56.9806
50	43741	27.31	55.2861
50	43891	27.41	53.5917
50	44041	27.51	51.8973
50	44191	27.61	50.2028
50	44341	27.71	48.5084
50	44491	27.81	46.8139
50	44641	27.91	45.1195
50	44795	28.01	43.4251
50	44945	28.11	41.7306
50	45095	28.21	40.0362
50	45245	28.31	38.3417
50	45395	28.41	36.6473
50	45545	28.51	34.9529
50	45695	28.61	33.2584
50	45845	28.71	31.564
50	45995	28.81	29.8695
50	46145	28.91	28.1751
50	46299	29.01	26.4807
50	46449	29.11	24.7862
50	46599	29.21	23.0918
50	46749	29.31	21.3973
50	46899	29.41	19.7029
50	47049	29.51	18.0085
50	47199	29.61	16.314
50	47349	29.71	14.6196
50	47499	29.81	12.9251
50	47649	29.91	11.2307
50	47803	30.01	9.53626
50	47953	30.11	7.84182
50	48103	30.21	6.14738
50	48253	30.31	4.45294
50	48403	30.41	2.7585
50	48553	30.51	1.06406
49	26	0.21	16.94
49	176	0.31	16.9401
49	326	0.41	16.9403
49	476	0.51	16.9405
49	626	0.61	16.9408
49	776	0.71	16.941
49	926	0.81	16.9413
49	1076	0.91	16.9416
49	1230	1.01	16.9419
49	1381	1.11	16.9421
49	1532	1.21	16.9424
49	1683	1.31	16.9427
49	2046	1.41	16.9429
49	2196	1.51	16.9431
49	2346	1.61	16.9433
49	2496	1.71	16.9435
49	2646	1.81	16.9437
49	2796	1.91	16.9438
49	2950	2.01	16.944
49	3100	2.11	16.9441
49	3250	2.21	16.9442
49	3400	2.31	16.9443
49	3763	2.41	16.9444
49	3914	2.51	16.9444
49	4064	2.61	16.9445
49	4214	2.71	16.9445
49	4364	2.81	16.9445
49	4514	2.91	16.9446
49	4668	3.01	16.9446
49	4818	3.11	16.9446
49	4968	3.21	16.9446
49	5118	3.31	16.9446
49	5269	3.41	16.9446
49	5676	3.51	16.9446
49	5826	3.61	16.9446
49	5976	3.71	16.9446
49	6126	3.81	16.9446
49	6276	3.91	16.9445
49	6430	4.01	16.9445
49	6580	4.11	16.9445
49	6730	4.21	16.9445
49	6880	4.31	16.9445
49	7030	4.41	16.9445
49	7393	4.51	16.9445
49	7544	4.61	16.9445
49	7694	4.71	16.9445
49	7844	4.81	16.9444
49	7994	4.91	16.9444
49	8148	5.01	16.9444
49	8298	5.11	16.9444
49	8448	5.21	16.9444
49	8598	5.31	16.9444
49	8748	5.41	16.9444
49	8899	5.51	16.9444
49	9262	5.61	16.9444
49	9412	5.71	16.9444
49	9562	5.81	16.9444
49	9712	5.91	16.9444
49	9866	6.01	16.9444
49	10016	6.11	16.9444
49	10166	6.21	16.9444
49	10316	6.31	16.9444
49	10466	6.41	16.9444
49	10616	6.51	16.9444
49	11023	6.61	16.9444
49	11174	6.71	16.9444
49	11324	6.81	16.9444
49	11474	6.91	16.9444
49	11628	7.01	16.9444
49	11778	7.11	16.9444
49	11928	7.21	16.9444
49	12078	7.31	16.9444
49	12228	7.41	16.9444
49	12378	7.51	16.9444
49	12529	7.61	16.9444
49	12892	7.71	16.9444
49	13042	7.81	16.9444
49	13192	7.91	16.9444
49	13346	8.01	16.9444
49	13496	8.11	16.9444
49	13646	8.21	16.9444
49	13796	8.31	16.9444
49	13946	8.41	16.9444
49	14096	8.51	16.9444
49	14246	8.61	16.9444
49	14609	8.71	16.9444
49	14760	8.81	16.9444
49	14910	8.91	16.9444
49	15064	9.01	16.9444
49	15214	9.11	16.9444
49	15364	9.21	16.9444
49	15514	9.31	16.9444
49	15664	9.41	16.9444
49	15814	9.51	16.9444
49	15964	9.61	16.9444
49	16115	9.71	16.9444
49	16522	9.81	16.9444
49	16672	9.91	16.9444
49	16826	10.01	16.9444
49	16976	10.11	16.9444
49	17126	10.21	16.9444
49	17276	10.31	16.9444
49	17426	10.41	16.9444
49	17576	10.51	16.9444
49	17726	10.61	16.9444
49	17876	10.71	16.9444
49	18239	10.81	16.9444
49	18390	10.91	16.9444
49	18544	11.01	16.9444
49	18694	11.11	16.9444
49	18844	11.21	16.9444
49	18994	11.31	16.9444
49	19144	11.41	16.9444
49	19294	11.51	16.9444
49	19444	11.61	16.9444
49	19594	11.71	16.9444
49	19745	11.81	16.9444
49	20108	11.91	16.9444
49	20262	12.01	16.9444
49	20412	12.11	16.9444
49	20562	12.21	16.9444
49	20712	12.31	16.9444
49	20862	12.41	16.9444
49	21012	12.51	16.9444
49	21162	12.61	16.9444
49	21312	12.71	16.9444
49	21462	12.81	16.9444
49	21845	12.91	16.9444
49	22000	13.01	16.9444
49	22150	13.11	16.9444
49	22300	13.21	16.9444
49	22450	13.31	16.9444
49	22600	13.41	16.9444
49	22750	13.51	16.9444
49	22900	13.61	16.9444
49	23050	13.71	16.9444
49	23200	13.81	16.9444
49	23351	13.91	16.9444
49	23738	14.01	16.9444
49	23888	14.11	16.9444
49	24038	14.21	16.9444
49	24188	14.31	16.9444
49	24338	14.41	16.9444
49	24488	14.51	16.9444
49	24638	14.61	16.9444
49	24788	14.71	16.9444
49	24938	14.81	16.9444
49	25088	14.91	16.9444
49	25242	15.01	16.9444
49	25392	15.11	16.9444
49	25542	15.21	16.9444
49	25692	15.31	16.9444
49	25842	15.41	16.9444
49	25992	15.51	16.9444
49	26142	15.61	16.9444
49	26292	15.71	16.9444
49	26442	15.81	16.9444
49	26592	15.91	16.9444
49	26746	16.01	16.9444
49	26896	16.11	16.9444
49	27046	16.21	16.9444
49	27196	16.31	16.9444
49	27346	16.41	16.9444
49	27496	16.51	16.9444
49	27646	16.61	16.9444
49	27796	16.71	16.9444
49	27946	16.81	16.9444
49	28096	16.91	16.9444
49	28250	17.01	16.9444
49	28400	17.11	16.9444
49	28550	17.21	16.9444
49	28700	17.31	16.9444
49	28850	17.41	16.9444
49	29000	17.51	16.9444
49	29150	17.61	16.9444
49	29300	17.71	16.9444
49	29450	17.81	16.9444
49	29600	17.91	16.9444
49	29754	18.01	16.9444
49	29904	18.11	16.9444
49	30054	18.21	16.9444
49	30204	18.31	16.9444
49	30354	18.41	16.9444
49	30504	18.51	16.9444
49	30654	18.61	16.9444
49	30804	18.71	16.9444
49	30954	18.81	16.9444
49	31104	18.91	16.9444
49	31258	19.01	16.9444
49	31408	19.11	16.9444
49	31558	19.21	16.9444
49	31708	19.31	16.9444
49	31858	19.41	16.9444
49	32008	19.51	16.9444
49	32158	19.61	16.9444
49	32308	19.71	16.9444
49	32458	19.81	16.9444
49	32608	19.91	16.9444
49	32762	20.01	16.9444
49	32912	20.11	16.9444
49	33062	20.21	16.9444
49	33212	20.31	16.9444
49	33362	20.41	16.9444
49	33512	20.51	16.9444
49	33662	20.61	16.9444
49	33812	20.71	16.9444
49	33962	20.81	16.9444
49	34112	20.91	16.9444
49	34266	21.01	16.9444
49	34416	21.11	16.9444
49	34566	21.21	16.9444
49	34716	21.31	16.9444
49	34866	21.41	16.9444
49	35016	21.51	16.9444
49	35166	21.61	16.9444
49	35316	21.71	16.9444
49	35466	21.81	16.9444
49	35616	21.91	16.9444
49	35770	22.01	16.9444
49	35920	22.11	16.9444
49	36070	22.21	16.9444
49	36220	22.31	16.9444
49	36370	22.41	16.9444
49	36520	22.51	16.9444
49	36670	22.61	16.9444
49	36820	22.71	16.9444
49	36970	22.81	16.9444
49	37120	22.91	16.9444
49	37274	23.01	16.9444
49	37424	23.11	16.9444
49	37574	23.21	16.9444
49	37724	23.31	16.9444
49	37874	23.41	16.9444
49	38024	23.51	16.9444
49	38174	23.61	16.9444
49	38324	23.71	16.9444
49	38474	23.81	16.9444
49	38624	23.91	16.9444
49	38778	24.01	16.9444
49	38928	24.11	16.9444
49	39078	24.21	16.9444
49	39228	24.31	16.9444
49	39378	24.41	16.9444
49	39528	24.51	16.9444
49	39678	24.61	16.9444
49	39828	24.71	16.9444
49	39978	24.81	16.9444
49	40128	24.91	16.9444
49	40282	25.01	16.9444
49	40432	25.11	16.9444
49	40582	25.21	16.9444
49	40732	25.31	16.9444
49	40882	25.41	16.9444
49	41032	25.51	16.9444
49	41182	25.61	16.9444
49	41333	25.71	16.9444
49	41483	25.81	16.9444
49	41633	25.91	16.9444
49	41787	26.01	16.9444
49	41937	26.11	16.9444
49	42087	26.21	16.9444
49	42237	26.31	16.9444
49	42387	26.41	16.9444
49	42537	26.51	16.9444
49	42687	26.61	16.9444
49	42837	26.71	16.9444
49	42987	26.81	16.9444
49	43137	26.91	16.9444
49	43291	27.01	16.9444
49	43441	27.11	16.9444
49	43591	27.21	16.9444
49	43741	27.31	16.9444
49	43891	27.41	16.9444
49	44041	27.51	16.9444
49	44191	27.61	16.9444
49	44341	27.71	16.9444
49	44491	27.81	16.9444
49	44641	27.91	16.9444
49	44795	28.01	16.9444
49	44945	28.11	16.9444
49	45095	28.21	16.9444
49	45245	28.31	16.9444
49	45395	28.41	16.9444
49	45545	28.51	16.9444
49	45695	28.61	16.9444
49	45845	28.71	16.9444
49	45995	28.81	16.9444
49	46145	28.91	16.9444
49	46299	29.01	16.9444
49	46449	29.11	16.9444
49	46599	29.21	16.9444
49	46749	29.31	16.9444
49	46899	29.41	16.9444
49	47049	29.51	16.9444
49	47199	29.61	16.9444
49	47349	29.71	16.9444
49	47499	29.81	16.9444
49	47649	29.91	16.9444
49	47803	30.01	16.9444
49	47953	30.11	16.9444
49	48103	30.21	16.9444
49	48253	30.31	16.9444
49	48403	30.41	16.9444
49	48553	30.51	16.9444
45	26	0.21	0
45	176	0.31	0
45	326	0.41	0
45	476	0.51	0
45	626	0.61	0
45	776	0.71	0
45	926	0.81	0
45	1076	0.91	0
45	1230	1.01	0
45	1381	1.11	0
45	1532	1.21	0
45	1683	1.31	0
45	2046	1.41	0
45	2196	1.51	0
45	2346	1.61	0
45	2496	1.71	0
45	2646	1.81	0
45	2796	1.91	0
45	2950	2.01	0
45	3100	2.11	0
45	3250	2.21	0
45	3400	2.31	0
45	3763	2.41	0
45	3914	2.51	0
45	4064	2.61	0
45	4214	2.71	0
45	4364	2.81	0
45	4514	2.91	0
45	4668	3.01	0
45	4818	3.11	0
45	4968	3.21	0
45	5118	3.31	0
45	5269	3.41	0
45	5676	3.51	0
45	5826	3.61	0
45	5976	3.71	0
45	6126	3.81	0
45	6276	3.91	0
45	6430	4.01	0
45	6580	4.11	0
45	6730	4.21	0
45	6880	4.31	0
45	7030	4.41	0
45	7393	4.51	0
45	7544	4.61	0
45	7694	4.71	0
45	7844	4.81	0
45	7994	4.91	0
45	8148	5.01	0
45	8298	5.11	0
45	8448	5.21	0
45	8598	5.31	0
45	8748	5.41	0
45	8899	5.51	0
45	9262	5.61	0
45	9412	5.71	0
45	9562	5.81	0
45	9712	5.91	0
45	9866	6.01	0
45	10016	6.11	0
45	10166	6.21	0
45	10316	6.31	0
45	10466	6.41	0
45	10616	6.51	0
45	11023	6.61	0
45	11174	6.71	0
45	11324	6.81	0
45	11474	6.91	0
45	11628	7.01	0
45	11778	7.11	0
45	11928	7.21	0
45	12078	7.31	0
45	12228	7.41	0
45	12378	7.51	0
45	12529	7.61	0
45	12892	7.71	0
45	13042	7.81	0
45	13192	7.91	0
45	13346	8.01	0
45	13496	8.11	0
45	13646	8.21	0
45	13796	8.31	0
45	13946	8.41	0
45	14096	8.51	0
45	14246	8.61	0
45	14609	8.71	0
45	14760	8.81	0
45	14910	8.91	0
45	15064	9.01	0
45	15214	9.11	0
45	15364	9.21	0
45	15514	9.31	0
45	15664	9.41	0
45	15814	9.51	0
45	15964	9.61	0
45	16115	9.71	0
45	16522	9.81	0
45	16672	9.91	0
45	16826	10.01	0
45	16976	10.11	0
45	17126	10.21	0
45	17276	10.31	0
45	17426	10.41	0
45	17576	10.51	0
45	17726	10.61	0
45	17876	10.71	0
45	18239	10.81	0
45	18390	10.91	0
45	18544	11.01	0
45	18694	11.11	0
45	18844	11.21	0
45	18994	11.31	0
45	19144	11.41	0
45	19294	11.51	0
45	19444	11.61	0
45	19594	11.71	0
45	19745	11.81	0
45	20108	11.91	0
45	20262	12.01	0
45	20412	12.11	0
45	20562	12.21	0
45	20712	12.31	0
45	20862	12.41	0
45	21012	12.51	0
45	21162	12.61	0
45	21312	12.71	0
45	21462	12.81	0
45	21845	12.91	0
45	22000	13.01	0
45	22150	13.11	0
45	22300	13.21	0
45	22450	13.31	0
45	22600	13.41	0
45	22750	13.51	0
45	22900	13.61	0
45	23050	13.71	0
45	23200	13.81	0
45	23351	13.91	0
45	23738	14.01	0
45	23888	14.11	0
45	24038	14.21	0
45	24188	14.31	0
45	24338	14.41	0
45	24488	14.51	0
45	24638	14.61	0
45	24788	14.71	0
45	24938	14.81	0
45	25088	14.91	0
45	25242	15.01	0
45	25392	15.11	0
45	25542	15.21	0
45	25692	15.31	0
45	25842	15.41	0
45	25992	15.51	0
45	26142	15.61	0
45	26292	15.71	0
45	26442	15.81	0
45	26592	15.91	0
45	26746	16.01	0
45	26896	16.11	0
45	27046	16.21	0
45	27196	16.31	0
45	27346	16.41	0
45	27496	16.51	0
45	27646	16.61	0
45	27796	16.71	0
45	27946	16.81	0
45	28096	16.91	0
45	28250	17.01	0
45	28400	17.11	0
45	28550	17.21	0
45	28700	17.31	0
45	28850	17.41	0
45	29000	17.51	0
45	29150	17.61	0
45	29300	17.71	0
45	29450	17.81	0
45	29600	17.91	0
45	29754	18.01	0
45	29904	18.11	0
45	30054	18.21	0
45	30204	18.31	0
45	30354	18.41	0
45	30504	18.51	0
45	30654	18.61	0
45	30804	18.71	0
45	30954	18.81	0
45	31104	18.91	0
45	31258	19.01	0
45	31408	19.11	0
45	31558	19.21	0
45	31708	19.31	0
45	31858	19.41	0
45	32008	19.51	0
45	32158	19.61	0
45	32308	19.71	0
45	32458	19.81	0
45	32608	19.91	0
45	32762	20.01	0
45	32912	20.11	0
45	33062	20.21	0
45	33212	20.31	0
45	33362	20.41	0
45	33512	20.51	0
45	33662	20.61	0
45	33812	20.71	0
45	33962	20.81	0
45	34112	20.91	0
45	34266	21.01	0
45	34416	21.11	0
45	34566	21.21	0
45	34716	21.31	0
45	34866	21.41	0
45	35016	21.51	0
45	35166	21.61	0
45	35316	21.71	0
45	35466	21.81	0
45	35616	21.91	0
45	35770	22.01	0
45	35920	22.11	0
45	36070	22.21	0
45	36220	22.31	0
45	36370	22.41	0
45	36520	22.51	0
45	36670	22.61	0
45	36820	22.71	0
45	36970	22.81	0
45	37120	22.91	0
45	37274	23.01	0
45	37424	23.11	0
45	37574	23.21	0
45	37724	23.31	0
45	37874	23.41	0
45	38024	23.51	0
45	38174	23.61	0
45	38324	23.71	0
45	38474	23.81	0
45	38624	23.91	0
45	38778	24.01	0
45	38928	24.11	0
45	39078	24.21	0
45	39228	24.31	0
45	39378	24.41	0
45	39528	24.51	0
45	39678	24.61	0
45	39828	24.71	0
45	39978	24.81	0
45	40128	24.91	0
45	40282	25.01	0
45	40432	25.11	0
45	40582	25.21	0
45	40732	25.31	0
45	40882	25.41	0
45	41032	25.51	0
45	41182	25.61	0
45	41333	25.71	0
45	41483	25.81	0
45	41633	25.91	0
45	41787	26.01	0
45	41937	26.11	0
45	42087	26.21	0
45	42237	26.31	0
45	42387	26.41	0
45	42537	26.51	0
45	42687	26.61	0
45	42837	26.71	0
45	42987	26.81	0
45	43137	26.91	0
45	43291	27.01	0
45	43441	27.11	0
45	43591	27.21	0
45	43741	27.31	0
45	43891	27.41	0
45	44041	27.51	0
45	44191	27.61	0
45	44341	27.71	0
45	44491	27.81	0
45	44641	27.91	0
45	44795	28.01	0
45	44945	28.11	0
45	45095	28.21	0
45	45245	28.31	0
45	45395	28.41	0
45	45545	28.51	0
45	45695	28.61	0
45	45845	28.71	0
45	45995	28.81	0
45	46145	28.91	0
45	46299	29.01	0
45	46449	29.11	0
45	46599	29.21	0
45	46749	29.31	0
45	46899	29.41	0
45	47049	29.51	0
45	47199	29.61	0
45	47349	29.71	0
45	47499	29.81	0
45	47649	29.91	0
45	47803	30.01	0
45	47953	30.11	0
45	48103	30.21	0
45	48253	30.31	0
45	48403	30.41	0
45	48553	30.51	0
44	26	0.21	-1
44	176	0.31	-1
44	326	0.41	-1
44	476	0.51	-1
44	626	0.61	-1
44	776	0.71	-1
44	926	0.81	-1
44	1076	0.91	-1
44	1230	1.01	-1
44	1381	1.11	-1
44	1532	1.21	-1
44	1683	1.31	-1
44	2046	1.41	-1
44	2196	1.51	-1
44	2346	1.61	-1
44	2496	1.71	-1
44	2646	1.81	-1
44	2796	1.91	-1
44	2950	2.01	-1
44	3100	2.11	-1
44	3250	2.21	-1
44	3400	2.31	-1
44	3763	2.41	-1
44	3914	2.51	-1
44	4064	2.61	-1
44	4214	2.71	-1
44	4364	2.81	-1
44	4514	2.91	-1
44	4668	3.01	-1
44	4818	3.11	-1
44	4968	3.21	-1
44	5118	3.31	-1
44	5269	3.41	-1
44	5676	3.51	-1
44	5826	3.61	-1
44	5976	3.71	-1
44	6126	3.81	-1
44	6276	3.91	-1
44	6430	4.01	-1
44	6580	4.11	-1
44	6730	4.21	-1
44	6880	4.31	-1
44	7030	4.41	-1
44	7393	4.51	-1
44	7544	4.61	-1
44	7694	4.71	-1
44	7844	4.81	-1
44	7994	4.91	-1
44	8148	5.01	-1
44	8298	5.11	-1
44	8448	5.21	-1
44	8598	5.31	-1
44	8748	5.41	-1
44	8899	5.51	-1
44	9262	5.61	-1
44	9412	5.71	-1
44	9562	5.81	-1
44	9712	5.91	-1
44	9866	6.01	-1
44	10016	6.11	-1
44	10166	6.21	-1
44	10316	6.31	-1
44	10466	6.41	-1
44	10616	6.51	-1
44	11023	6.61	-1
44	11174	6.71	-1
44	11324	6.81	-1
44	11474	6.91	-1
44	11628	7.01	-1
44	11778	7.11	-1
44	11928	7.21	-1
44	12078	7.31	-1
44	12228	7.41	-1
44	12378	7.51	-1
44	12529	7.61	-1
44	12892	7.71	-1
44	13042	7.81	-1
44	13192	7.91	-1
44	13346	8.01	-1
44	13496	8.11	-1
44	13646	8.21	-1
44	13796	8.31	-1
44	13946	8.41	-1
44	14096	8.51	-1
44	14246	8.61	-1
44	14609	8.71	-1
44	14760	8.81	-1
44	14910	8.91	-1
44	15064	9.01	-1
44	15214	9.11	-1
44	15364	9.21	-1
44	15514	9.31	-1
44	15664	9.41	-1
44	15814	9.51	-1
44	15964	9.61	-1
44	16115	9.71	-1
44	16522	9.81	-1
44	16672	9.91	-1
44	16826	10.01	-1
44	16976	10.11	-1
44	17126	10.21	-1
44	17276	10.31	-1
44	17426	10.41	-1
44	17576	10.51	-1
44	17726	10.61	-1
44	17876	10.71	-1
44	18239	10.81	-1
44	18390	10.91	-1
44	18544	11.01	-1
44	18694	11.11	-1
44	18844	11.21	-1
44	18994	11.31	-1
44	19144	11.41	-1
44	19294	11.51	-1
44	19444	11.61	-1
44	19594	11.71	-1
44	19745	11.81	-1
44	20108	11.91	-1
44	20262	12.01	-1
44	20412	12.11	-1
44	20562	12.21	-1
44	20712	12.31	-1
44	20862	12.41	-1
44	21012	12.51	-1
44	21162	12.61	-1
44	21312	12.71	-1
44	21462	12.81	-1
44	21845	12.91	-1
44	22000	13.01	-1
44	22150	13.11	-1
44	22300	13.21	-1
44	22450	13.31	-1
44	22600	13.41	-1
44	22750	13.51	-1
44	22900	13.61	-1
44	23050	13.71	-1
44	23200	13.81	-1
44	23351	13.91	-1
44	23738	14.01	-1
44	23888	14.11	-1
44	24038	14.21	-1
44	24188	14.31	-1
44	24338	14.41	-1
44	24488	14.51	-1
44	24638	14.61	-1
44	24788	14.71	-1
44	24938	14.81	-1
44	25088	14.91	-1
44	25242	15.01	-1
44	25392	15.11	-1
44	25542	15.21	-1
44	25692	15.31	-1
44	25842	15.41	-1
44	25992	15.51	-1
44	26142	15.61	-1
44	26292	15.71	-1
44	26442	15.81	-1
44	26592	15.91	-1
44	26746	16.01	-1
44	26896	16.11	-1
44	27046	16.21	-1
44	27196	16.31	-1
44	27346	16.41	-1
44	27496	16.51	-1
44	27646	16.61	-1
44	27796	16.71	-1
44	27946	16.81	-1
44	28096	16.91	-1
44	28250	17.01	-1
44	28400	17.11	-1
44	28550	17.21	-1
44	28700	17.31	-1
44	28850	17.41	-1
44	29000	17.51	-1
44	29150	17.61	-1
44	29300	17.71	-1
44	29450	17.81	-1
44	29600	17.91	-1
44	29754	18.01	-1
44	29904	18.11	-1
44	30054	18.21	-1
44	30204	18.31	-1
44	30354	18.41	-1
44	30504	18.51	-1
44	30654	18.61	-1
44	30804	18.71	-1
44	30954	18.81	-1
44	31104	18.91	-1
44	31258	19.01	-1
44	31408	19.11	-1
44	31558	19.21	-1
44	31708	19.31	-1
44	31858	19.41	-1
44	32008	19.51	-1
44	32158	19.61	-1
44	32308	19.71	-1
44	32458	19.81	-1
44	32608	19.91	-1
44	32762	20.01	-1
44	32912	20.11	-1
44	33062	20.21	-1
44	33212	20.31	-1
44	33362	20.41	-1
44	33512	20.51	-1
44	33662	20.61	-1
44	33812	20.71	-1
44	33962	20.81	-1
44	34112	20.91	-1
44	34266	21.01	-1
44	34416	21.11	-1
44	34566	21.21	-1
44	34716	21.31	-1
44	34866	21.41	-1
44	35016	21.51	-1
44	35166	21.61	-1
44	35316	21.71	-1
44	35466	21.81	-1
44	35616	21.91	-1
44	35770	22.01	-1
44	35920	22.11	-1
44	36070	22.21	-1
44	36220	22.31	-1
44	36370	22.41	-1
44	36520	22.51	-1
44	36670	22.61	-1
44	36820	22.71	-1
44	36970	22.81	-1
44	37120	22.91	-1
44	37274	23.01	-1
44	37424	23.11	-1
44	37574	23.21	-1
44	37724	23.31	-1
44	37874	23.41	-1
44	38024	23.51	-1
44	38174	23.61	-1
44	38324	23.71	-1
44	38474	23.81	-1
44	38624	23.91	-1
44	38778	24.01	-1
44	38928	24.11	-1
44	39078	24.21	-1
44	39228	24.31	-1
44	39378	24.41	-1
44	39528	24.51	-1
44	39678	24.61	-1
44	39828	24.71	-1
44	39978	24.81	-1
44	40128	24.91	-1
44	40282	25.01	-1
44	40432	25.11	-1
44	40582	25.21	-1
44	40732	25.31	-1
44	40882	25.41	-1
44	41032	25.51	-1
44	41182	25.61	-1
44	41333	25.71	-1
44	41483	25.81	-1
44	41633	25.91	-1
44	41787	26.01	-1
44	41937	26.11	-1
44	42087	26.21	-1
44	42237	26.31	-1
44	42387	26.41	-1
44	42537	26.51	-1
44	42687	26.61	-1
44	42837	26.71	-1
44	42987	26.81	-1
44	43137	26.91	-1
44	43291	27.01	-1
44	43441	27.11	-1
44	43591	27.21	-1
44	43741	27.31	-1
44	43891	27.41	-1
44	44041	27.51	-1
44	44191	27.61	-1
44	44341	27.71	-1
44	44491	27.81	-1
44	44641	27.91	-1
44	44795	28.01	-1
44	44945	28.11	-1
44	45095	28.21	-1
44	45245	28.31	-1
44	45395	28.41	-1
44	45545	28.51	-1
44	45695	28.61	-1
44	45845	28.71	-1
44	45995	28.81	-1
44	46145	28.91	-1
44	46299	29.01	-1
44	46449	29.11	-1
44	46599	29.21	-1
44	46749	29.31	-1
44	46899	29.41	-1
44	47049	29.51	-1
44	47199	29.61	-1
44	47349	29.71	-1
44	47499	29.81	-1
44	47649	29.91	-1
44	47803	30.01	-1
44	47953	30.11	-1
44	48103	30.21	-1
44	48253	30.31	-1
44	48403	30.41	-1
44	48553	30.51	-1
46	26	0.21	3
46	176	0.31	3
46	326	0.41	3
46	476	0.51	3
46	626	0.61	3
46	776	0.71	3
46	926	0.81	3
46	1076	0.91	3
46	1230	1.01	3
46	1381	1.11	3
46	1532	1.21	3
46	1683	1.31	3
46	2046	1.41	3
46	2196	1.51	3
46	2346	1.61	3
46	2496	1.71	3
46	2646	1.81	3
46	2796	1.91	3
46	2950	2.01	3
46	3100	2.11	3
46	3250	2.21	3
46	3400	2.31	3
46	3763	2.41	3
46	3914	2.51	3
46	4064	2.61	3
46	4214	2.71	3
46	4364	2.81	3
46	4514	2.91	3
46	4668	3.01	3
46	4818	3.11	3
46	4968	3.21	3
46	5118	3.31	3
46	5269	3.41	3
46	5676	3.51	3
46	5826	3.61	3
46	5976	3.71	3
46	6126	3.81	3
46	6276	3.91	3
46	6430	4.01	3
46	6580	4.11	3
46	6730	4.21	3
46	6880	4.31	3
46	7030	4.41	3
46	7393	4.51	3
46	7544	4.61	3
46	7694	4.71	3
46	7844	4.81	3
46	7994	4.91	3
46	8148	5.01	3
46	8298	5.11	3
46	8448	5.21	3
46	8598	5.31	3
46	8748	5.41	3
46	8899	5.51	3
46	9262	5.61	3
46	9412	5.71	3
46	9562	5.81	3
46	9712	5.91	3
46	9866	6.01	3
46	10016	6.11	3
46	10166	6.21	3
46	10316	6.31	3
46	10466	6.41	3
46	10616	6.51	3
46	11023	6.61	3
46	11174	6.71	3
46	11324	6.81	3
46	11474	6.91	3
46	11628	7.01	3
46	11778	7.11	3
46	11928	7.21	3
46	12078	7.31	3
46	12228	7.41	3
46	12378	7.51	3
46	12529	7.61	3
46	12892	7.71	3
46	13042	7.81	3
46	13192	7.91	3
46	13346	8.01	3
46	13496	8.11	3
46	13646	8.21	3
46	13796	8.31	3
46	13946	8.41	3
46	14096	8.51	3
46	14246	8.61	3
46	14609	8.71	3
46	14760	8.81	3
46	14910	8.91	3
46	15064	9.01	3
46	15214	9.11	3
46	15364	9.21	3
46	15514	9.31	3
46	15664	9.41	3
46	15814	9.51	3
46	15964	9.61	3
46	16115	9.71	3
46	16522	9.81	3
46	16672	9.91	3
46	16826	10.01	3
46	16976	10.11	3
46	17126	10.21	3
46	17276	10.31	3
46	17426	10.41	3
46	17576	10.51	3
46	17726	10.61	3
46	17876	10.71	3
46	18239	10.81	3
46	18390	10.91	3
46	18544	11.01	3
46	18694	11.11	3
46	18844	11.21	3
46	18994	11.31	3
46	19144	11.41	3
46	19294	11.51	3
46	19444	11.61	3
46	19594	11.71	3
46	19745	11.81	3
46	20108	11.91	3
46	20262	12.01	3
46	20412	12.11	3
46	20562	12.21	3
46	20712	12.31	3
46	20862	12.41	3
46	21012	12.51	3
46	21162	12.61	3
46	21312	12.71	3
46	21462	12.81	3
46	21845	12.91	3
46	22000	13.01	3
46	22150	13.11	3
46	22300	13.21	3
46	22450	13.31	3
46	22600	13.41	3
46	22750	13.51	3
46	22900	13.61	3
46	23050	13.71	3
46	23200	13.81	3
46	23351	13.91	3
46	23738	14.01	3
46	23888	14.11	3
46	24038	14.21	3
46	24188	14.31	3
46	24338	14.41	3
46	24488	14.51	3
46	24638	14.61	3
46	24788	14.71	3
46	24938	14.81	3
46	25088	14.91	3
46	25242	15.01	3
46	25392	15.11	3
46	25542	15.21	3
46	25692	15.31	3
46	25842	15.41	3
46	25992	15.51	3
46	26142	15.61	3
46	26292	15.71	3
46	26442	15.81	3
46	26592	15.91	3
46	26746	16.01	3
46	26896	16.11	3
46	27046	16.21	3
46	27196	16.31	3
46	27346	16.41	3
46	27496	16.51	3
46	27646	16.61	3
46	27796	16.71	3
46	27946	16.81	3
46	28096	16.91	3
46	28250	17.01	3
46	28400	17.11	3
46	28550	17.21	3
46	28700	17.31	3
46	28850	17.41	3
46	29000	17.51	3
46	29150	17.61	3
46	29300	17.71	3
46	29450	17.81	3
46	29600	17.91	3
46	29754	18.01	3
46	29904	18.11	3
46	30054	18.21	3
46	30204	18.31	3
46	30354	18.41	3
46	30504	18.51	3
46	30654	18.61	3
46	30804	18.71	3
46	30954	18.81	3
46	31104	18.91	3
46	31258	19.01	3
46	31408	19.11	3
46	31558	19.21	3
46	31708	19.31	3
46	31858	19.41	3
46	32008	19.51	3
46	32158	19.61	3
46	32308	19.71	3
46	32458	19.81	3
46	32608	19.91	3
46	32762	20.01	3
46	32912	20.11	3
46	33062	20.21	3
46	33212	20.31	3
46	33362	20.41	3
46	33512	20.51	3
46	33662	20.61	3
46	33812	20.71	3
46	33962	20.81	3
46	34112	20.91	3
46	34266	21.01	3
46	34416	21.11	3
46	34566	21.21	3
46	34716	21.31	3
46	34866	21.41	3
46	35016	21.51	3
46	35166	21.61	3
46	35316	21.71	3
46	35466	21.81	3
46	35616	21.91	3
46	35770	22.01	3
46	35920	22.11	3
46	36070	22.21	3
46	36220	22.31	3
46	36370	22.41	3
46	36520	22.51	3
46	36670	22.61	3
46	36820	22.71	3
46	36970	22.81	3
46	37120	22.91	3
46	37274	23.01	3
46	37424	23.11	3
46	37574	23.21	3
46	37724	23.31	3
46	37874	23.41	3
46	38024	23.51	3
46	38174	23.61	3
46	38324	23.71	3
46	38474	23.81	3
46	38624	23.91	3
46	38778	24.01	3
46	38928	24.11	3
46	39078	24.21	3
46	39228	24.31	3
46	39378	24.41	3
46	39528	24.51	3
46	39678	24.61	3
46	39828	24.71	3
46	39978	24.81	3
46	40128	24.91	3
46	40282	25.01	3
46	40432	25.11	3
46	40582	25.21	3
46	40732	25.31	3
46	40882	25.41	3
46	41032	25.51	3
46	41182	25.61	3
46	41333	25.71	3
46	41483	25.81	3
46	41633	25.91	3
46	41787	26.01	3
46	41937	26.11	3
46	42087	26.21	3
46	42237	26.31	3
46	42387	26.41	3
46	42537	26.51	3
46	42687	26.61	3
46	42837	26.71	3
46	42987	26.81	3
46	43137	26.91	3
46	43291	27.01	3
46	43441	27.11	3
46	43591	27.21	3
46	43741	27.31	3
46	43891	27.41	3
46	44041	27.51	3
46	44191	27.61	3
46	44341	27.71	3
46	44491	27.81	3
46	44641	27.91	3
46	44795	28.01	3
46	44945	28.11	3
46	45095	28.21	3
46	45245	28.31	3
46	45395	28.41	3
46	45545	28.51	3
46	45695	28.61	3
46	45845	28.71	3
46	45995	28.81	3
46	46145	28.91	3
46	46299	29.01	3
46	46449	29.11	3
46	46599	29.21	3
46	46749	29.31	3
46	46899	29.41	3
46	47049	29.51	3
46	47199	29.61	3
46	47349	29.71	3
46	47499	29.81	3
46	47649	29.91	3
46	47803	30.01	3
46	47953	30.11	3
46	48103	30.21	3
46	48253	30.31	3
46	48403	30.41	3
46	48553	30.51	3
67	1191	1	0
67	2911	2	0
67	4629	3	0
67	6391	4	0
67	8109	5	0
67	9827	6	0
67	11589	7	0
67	13307	8	0
67	15025	9	0
67	16787	10	0
67	18505	11	0
67	20223	12	0
67	21961	13	0
67	23699	14	0
67	25203	15	0
67	26707	16	0
67	28211	17	0
67	29715	18	0
67	31219	19	0
67	32723	20	0
67	34227	21	0
67	35731	22	0
67	37235	23	0
67	38739	24	0
67	40243	25	0
67	41748	26	0
67	43252	27	0
67	44756	28	0
67	46260	29	0
67	47764	30	0
66	1191	1	0.009679
66	2911	2	0.01300576685
66	4629	3	0.013005502272
66	6391	4	0.013053254838
66	8109	5	0.01300501262
66	9827	6	0.013004772232
66	11589	7	0.01314753363
66	13307	8	0.0130042971
66	15025	9	0.013004062626
66	16787	10	0.01314683004
66	18505	11	0.01300359916
66	20223	12	0.013003369898
66	21961	13	0.013003142726
66	23699	14	0.01300308845
66	25203	15	0.01249
66	26707	16	0.01249
66	28211	17	0.01249
66	29715	18	0.01249
66	31219	19	0.01249
66	32723	20	0.01249
66	34227	21	0.01249
66	35731	22	0.01249
66	37235	23	0.01249
66	38739	24	0.01249
66	40243	25	0.01249
66	41748	26	0.01249
66	43252	27	0.01249
66	44756	28	0.01249
66	46260	29	0.01249
66	47764	30	0.01249
65	1191	1	3
65	2911	2	3
65	4629	3	3
65	6391	4	3
65	8109	5	3
65	9827	6	3
65	11589	7	3
65	13307	8	3
65	15025	9	3
65	16787	10	3
65	18505	11	3
65	20223	12	3
65	21961	13	3
65	23699	14	3
65	25203	15	3
65	26707	16	3
65	28211	17	3
65	29715	18	3
65	31219	19	3
65	32723	20	3
65	34227	21	3
65	35731	22	3
65	37235	23	3
65	38739	24	3
65	40243	25	3
65	41748	26	3
65	43252	27	3
65	44756	28	3
65	46260	29	3
65	47764	30	3
19	15	0.13	2.3769522204813
19	16	0.14	2.3772908824272
19	17	0.15	2.3776228111158
19	18	0.16	2.3779480735338
19	19	0.17	2.3782667366572
19	20	0.18	2.3785788674431
19	21	0.19	2.3788845328136
19	22	0.2	2.3791837996428
19	27	0.21	2.3794767347483
19	62	0.22	2.3797634048752
19	97	0.23	2.3800438766876
19	98	0.24	2.3803182167572
19	99	0.25	2.3805864915481
19	134	0.26	2.3808487674108
19	135	0.27	2.3811051105681
19	136	0.28	2.3813555871056
19	137	0.29	2.3816002629642
19	138	0.3	2.3818392039259
19	177	0.31	2.3820724756063
19	212	0.32	2.3823001434447
19	247	0.33	2.382522272695
19	248	0.34	2.3827389284148
19	249	0.35	2.3829501754603
19	284	0.36	2.3831560784738
19	285	0.37	2.3833567018761
19	286	0.38	2.383552109861
19	287	0.39	2.3837423663834
19	288	0.4	2.3839275351551
19	327	0.41	2.3841076796314
19	362	0.42	2.3842828630118
19	397	0.43	2.3844531482261
19	398	0.44	2.3846185979305
19	399	0.45	2.3847792745002
19	434	0.46	2.3849352400205
19	435	0.47	2.3850865562856
19	436	0.48	2.3852332847852
19	437	0.49	2.3853754867046
19	438	0.5	2.385513222916
19	477	0.51	2.3856465539711
19	512	0.52	2.3857755400995
19	547	0.53	2.3859002412015
19	548	0.54	2.3860207168409
19	549	0.55	2.3861370262415
19	584	0.56	2.3862492282835
19	585	0.57	2.3863573814969
19	586	0.58	2.3864615440575
19	587	0.59	2.3865617737834
19	588	0.6	2.3866581281271
19	627	0.61	2.3867506641759
19	662	0.62	2.3868394386465
19	697	0.63	2.3869245078792
19	698	0.64	2.3870059278375
19	699	0.65	2.3870837541024
19	734	0.66	2.3871580418677
19	735	0.67	2.3872288459404
19	736	0.68	2.3872962207356
19	737	0.69	2.3873602202726
19	738	0.7	2.3874208981729
19	777	0.71	2.3874783076604
19	812	0.72	2.3875325015525
19	847	0.73	2.3875835322643
19	848	0.74	2.3876314518012
19	849	0.75	2.3876763117587
19	884	0.76	2.3877181633228
19	885	0.77	2.3877570572632
19	886	0.78	2.3877930439355
19	887	0.79	2.3878261732774
19	888	0.8	2.387856494808
19	927	0.81	2.3878840576238
19	962	0.82	2.3879089104023
19	997	0.83	2.3879311013969
19	998	0.84	2.3879506784373
19	999	0.85	2.3879676889261
19	1034	0.86	2.3879821798416
19	1035	0.87	2.3879941977351
19	1036	0.88	2.3880037887288
19	1037	0.89	2.3880109985161
19	1038	0.9	2.388015872364
19	1077	0.91	2.3880184551077
19	1112	0.92	2.3880187911528
19	1147	0.93	2.3880169244754
19	1148	0.94	2.3880128986206
19	1149	0.95	2.3880067567036
19	1184	0.96	2.3879985414097
19	1185	0.97	2.3879882949944
19	1186	0.98	2.3879760592811
19	1187	0.99	2.3879618756647
19	1192	1	2.3879457851095
19	1231	1.01	2.387927828152
19	1266	1.02	2.3879080448996
19	1301	1.03	2.38788647503
19	1302	1.04	2.3878631577945
19	1303	1.05	2.3878381320174
19	1338	1.06	2.3878114360975
19	1339	1.07	2.3877831080081
19	1340	1.08	2.3877531852966
19	1341	1.09	2.3877217050902
19	1342	1.1	2.3876887040902
19	1382	1.11	2.3876542185774
19	1417	1.12	2.3876182844136
19	1452	1.13	2.3875809370427
19	1453	1.14	2.3875422114879
19	1454	1.15	2.3875021423572
19	1489	1.16	2.3874607638447
19	1490	1.17	2.3874181097291
19	1491	1.18	2.3873742133795
19	1492	1.19	2.3873291077519
19	1493	1.2	2.3872828253955
19	1533	1.21	2.3872353984504
19	1568	1.22	2.3871868586526
19	1603	1.23	2.3871372373332
19	1604	1.24	2.3870865654215
19	1605	1.25	2.3870348734461
19	1640	1.26	2.3869821915381
19	1641	1.27	2.3869285494319
19	1642	1.28	2.3868739764668
19	1643	1.29	2.3868185015883
19	1644	1.3	2.3867621533538
19	1684	1.31	2.3867049599307
19	1931	1.32	2.3866469491011
19	1966	1.33	2.3865881482615
19	1967	1.34	2.3865285844268
19	1968	1.35	2.3864682842319
19	2004	1.36	2.3864072739343
19	2005	1.37	2.3863455794154
19	2006	1.38	2.3862832261837
19	2007	1.39	2.386220239377
19	2008	1.4	2.3861566437639
19	2047	1.41	2.3860924637483
19	2082	1.42	2.386027723369
19	2117	1.43	2.385962446304
19	2118	1.44	2.3858966558732
19	2119	1.45	2.3858303750386
19	2154	1.46	2.385763626408
19	2155	1.47	2.3856964322399
19	2156	1.48	2.3856288144426
19	2157	1.49	2.3855607945778
19	2158	1.5	2.3854923938627
19	2197	1.51	2.3854236331747
19	2232	1.52	2.3853545330526
19	2267	1.53	2.3852851136976
19	2268	1.54	2.3852153949781
19	2269	1.55	2.3851453964323
19	2304	1.56	2.3850751372708
19	2305	1.57	2.385004636378
19	2306	1.58	2.384933912315
19	2307	1.59	2.3848629833239
19	2308	1.6	2.3847918673275
19	2347	1.61	2.3847205819367
19	2382	1.62	2.3846491444485
19	2417	1.63	2.3845775718508
19	2418	1.64	2.3845058808248
19	2419	1.65	2.3844340877495
19	2454	1.66	2.3843622087014
19	2455	1.67	2.3842902594588
19	2456	1.68	2.3842182555063
19	2457	1.69	2.3841462120328
19	2458	1.7	2.3840741439376
19	2497	1.71	2.384002065836
19	2532	1.72	2.3839299920546
19	2567	1.73	2.3838579366417
19	2568	1.74	2.3837859133643
19	2569	1.75	2.3837139357135
19	2604	1.76	2.3836420169091
19	2605	1.77	2.3835701698978
19	2606	1.78	2.3834984073591
19	2607	1.79	2.383426741708
19	2608	1.8	2.3833551850964
19	2647	1.81	2.383283749416
19	2682	1.82	2.3832124463037
19	2717	1.83	2.3831412871407
19	2718	1.84	2.3830702830575
19	2719	1.85	2.3829994449357
19	2754	1.86	2.3829287834121
19	2755	1.87	2.3828583088788
19	2756	1.88	2.3827880314873
19	2757	1.89	2.3827179611528
19	2758	1.9	2.3826481075556
19	2797	1.91	2.3825784801426
19	2832	1.92	2.3825090881312
19	2867	1.93	2.3824399405142
19	2868	1.94	2.3823710460561
19	2869	1.95	2.3823024133038
19	2904	1.96	2.3822340505831
19	2905	1.97	2.382165966005
19	2906	1.98	2.3820981674652
19	2907	1.99	2.3820306626499
19	2912	2	2.3819634590372
19	2951	2.01	2.3818965638988
19	2986	2.02	2.3818299843039
19	3021	2.03	2.3817637271204
19	3022	2.04	2.38169779902
19	3023	2.05	2.3816322064772
19	3058	2.06	2.3815669557742
19	3059	2.07	2.3815020530037
19	3060	2.08	2.3814375040699
19	3061	2.09	2.3813733146931
19	3062	2.1	2.3813094904096
19	3101	2.11	2.3812460365761
19	3136	2.12	2.3811829583707
19	3171	2.13	2.3811202607992
19	3172	2.14	2.3810579486917
19	3173	2.15	2.3809960267099
19	3208	2.16	2.3809344993459
19	3209	2.17	2.3808733709274
19	3210	2.18	2.3808126456196
19	3211	2.19	2.3807523274249
19	3212	2.2	2.38069242019
19	3251	2.21	2.3806329276034
19	3286	2.22	2.3805738532021
19	3321	2.23	2.3805152003689
19	3322	2.24	2.380456972341
19	3323	2.25	2.3803991722055
19	3358	2.26	2.3803418029071
19	3359	2.27	2.3802848672486
19	3360	2.28	2.3802283678919
19	3361	2.29	2.3801723073599
19	3362	2.3	2.380116688043
19	3401	2.31	2.3800615121956
19	3436	2.32	2.3800067819425
19	3471	2.33	2.3799524992794
19	3472	2.34	2.3798986660739
19	3473	2.35	2.3798452840705
19	3509	2.36	2.3797923548893
19	3722	2.37	2.3797398800305
19	3723	2.38	2.3796878608756
19	3724	2.39	2.3796362986906
19	3725	2.4	2.3795851946267
19	3765	2.41	2.3795345497212
19	3800	2.42	2.3794843649039
19	3835	2.43	2.3794346409934
19	3836	2.44	2.3793853787023
19	3837	2.45	2.3793365786402
19	3872	2.46	2.3792882413142
19	3873	2.47	2.3792403671295
19	3874	2.48	2.3791929563913
19	3875	2.49	2.3791460093106
19	3876	2.5	2.3790995260024
19	3915	2.51	2.3790535064877
19	3950	2.52	2.3790079506969
19	3985	2.53	2.3789628584709
19	3986	2.54	2.3789182295615
19	3987	2.55	2.3788740636364
19	4022	2.56	2.3788303602789
19	4023	2.57	2.3787871189878
19	4024	2.58	2.3787443391836
19	4025	2.59	2.3787020202049
19	4026	2.6	2.3786601613163
19	4065	2.61	2.3786187617036
19	4100	2.62	2.3785778204796
19	4135	2.63	2.3785373366858
19	4136	2.64	2.3784973092908
19	4137	2.65	2.3784577371944
19	4172	2.66	2.3784186192294
19	4173	2.67	2.3783799541612
19	4174	2.68	2.3783417406926
19	4175	2.69	2.378303977462
19	4176	2.7	2.378266663046
19	4215	2.71	2.3782297959618
19	4250	2.72	2.3781933746674
19	4285	2.73	2.3781573975641
19	4286	2.74	2.3781218629972
19	4287	2.75	2.3780867692564
19	4322	2.76	2.3780521145815
19	4323	2.77	2.3780178971579
19	4324	2.78	2.3779841151209
19	4325	2.79	2.377950766559
19	4326	2.8	2.3779178495133
19	4365	2.81	2.3778853619752
19	4400	2.82	2.3778533018958
19	4435	2.83	2.377821667178
19	4436	2.84	2.377790455686
19	4437	2.85	2.3777596652413
19	4472	2.86	2.3777292936269
19	4473	2.87	2.3776993385844
19	4474	2.88	2.3776697978197
19	4475	2.89	2.3776406690034
19	4476	2.9	2.37761194977
19	4515	2.91	2.3775836377189
19	4550	2.92	2.3775557304192
19	4585	2.93	2.3775282254061
19	4586	2.94	2.3775011201863
19	4587	2.95	2.3774744122337
19	4622	2.96	2.3774480989982
19	4623	2.97	2.3774221778983
19	4624	2.98	2.3773966463285
19	4625	2.99	2.3773715016577
19	4630	3	2.3773467412307
19	4669	3.01	2.3773223623682
19	4704	3.02	2.3772983623683
19	4739	3.03	2.3772747385092
19	4740	3.04	2.3772514880466
19	4741	3.05	2.3772286082191
19	4776	3.06	2.3772060962473
19	4777	3.07	2.3771839493303
19	4778	3.08	2.3771621646546
19	4779	3.09	2.3771407393887
19	4780	3.1	2.3771196706853
19	4819	3.11	2.3770989556863
19	4854	3.12	2.3770785915163
19	4889	3.13	2.3770585752907
19	4890	3.14	2.3770389041121
19	4891	3.15	2.3770195750719
19	4926	3.16	2.3770005852521
19	4927	3.17	2.3769819317248
19	4928	3.18	2.3769636115526
19	4929	3.19	2.3769456217927
19	4930	3.2	2.376927959494
19	4969	3.21	2.3769106216973
19	5004	3.22	2.376893605441
19	5039	3.23	2.3768769077567
19	5040	3.24	2.376860525672
19	5041	3.25	2.3768444562124
19	5076	3.26	2.3768286963976
19	5077	3.27	2.3768132432468
19	5078	3.28	2.3767980937764
19	5079	3.29	2.3767832450021
19	5080	3.3	2.3767686939415
19	5119	3.31	2.3767544376081
19	5154	3.32	2.3767404730206
19	5189	3.33	2.3767267971949
19	5190	3.34	2.376713407152
19	5191	3.35	2.3767002999118
19	5226	3.36	2.3766874725005
19	5227	3.37	2.3766749219479
19	5228	3.38	2.3766626452839
19	5229	3.39	2.3766506395466
19	5230	3.4	2.3766389017785
19	5270	3.41	2.3766274290258
19	5561	3.42	2.3766162183424
19	5596	3.43	2.376605266787
19	5597	3.44	2.3765945714275
19	5598	3.45	2.3765841293366
19	5634	3.46	2.376573937595
19	5635	3.47	2.3765639932938
19	5636	3.48	2.3765542935305
19	5637	3.49	2.376544835412
19	5638	3.5	2.3765356160542
19	5677	3.51	2.3765266325852
19	5712	3.52	2.3765178821395
19	5747	3.53	2.3765093618636
19	5748	3.54	2.3765010689163
19	5749	3.55	2.3764930004656
19	5784	3.56	2.3764851536915
19	5785	3.57	2.3764775257864
19	5786	3.58	2.3764701139546
19	5787	3.59	2.3764629154115
19	5788	3.6	2.3764559273885
19	5827	3.61	2.3764491471266
19	5862	3.62	2.3764425718805
19	5897	3.63	2.3764361989212
19	5898	3.64	2.3764300255321
19	5899	3.65	2.3764240490085
19	5934	3.66	2.376418266664
19	5935	3.67	2.3764126758242
19	5936	3.68	2.3764072738314
19	5937	3.69	2.3764020580401
19	5938	3.7	2.3763970258226
19	5977	3.71	2.3763921745666
19	6012	3.72	2.3763875016749
19	6047	3.73	2.3763830045666
19	6048	3.74	2.3763786806764
19	6049	3.75	2.3763745274565
19	6084	3.76	2.3763705423733
19	6085	3.77	2.3763667229123
19	6086	3.78	2.3763630665746
19	6087	3.79	2.3763595708789
19	6088	3.8	2.3763562333609
19	6127	3.81	2.3763530515726
19	6162	3.82	2.3763500230859
19	6197	3.83	2.3763471454876
19	6198	3.84	2.3763444163827
19	6199	3.85	2.3763418333957
19	6234	3.86	2.3763393941679
19	6235	3.87	2.3763370963586
19	6236	3.88	2.3763349376452
19	6237	3.89	2.3763329157247
19	6238	3.9	2.3763310283094
19	6277	3.91	2.3763292731325
19	6312	3.92	2.376327647947
19	6347	3.93	2.376326150521
19	6348	3.94	2.3763247786436
19	6349	3.95	2.3763235301208
19	6384	3.96	2.376322402781
19	6385	3.97	2.3763213944664
19	6386	3.98	2.3763205030433
19	6387	3.99	2.3763197263931
19	6392	4	2.3763190624185
19	6431	4.01	2.3763185090389
19	6466	4.02	2.3763180641946
19	6501	4.03	2.3763177258459
19	6502	4.04	2.3763174919696
19	6503	4.05	2.3763173605637
19	6538	4.06	2.376317329646
19	6539	4.07	2.376317397251
19	6540	4.08	2.3763175614327
19	6541	4.09	2.3763178202666
19	6542	4.1	2.3763181718447
19	6581	4.11	2.3763186142805
19	6616	4.12	2.3763191457053
19	6651	4.13	2.3763197642707
19	6652	4.14	2.376320468146
19	6653	4.15	2.3763212555207
19	6688	4.16	2.3763221246022
19	6689	4.17	2.3763230736195
19	6690	4.18	2.3763241008182
19	6691	4.19	2.3763252044651
19	6692	4.2	2.376326382844
19	6731	4.21	2.3763276342584
19	6766	4.22	2.3763289570301
19	6801	4.23	2.3763303495008
19	6802	4.24	2.3763318100318
19	6803	4.25	2.3763333370015
19	6838	4.26	2.3763349288079
19	6839	4.27	2.3763365838677
19	6840	4.28	2.3763383006155
19	6841	4.29	2.3763400775061
19	6842	4.3	2.3763419130111
19	6881	4.31	2.3763438056218
19	6916	4.32	2.3763457538467
19	6951	4.33	2.376347756214
19	6952	4.34	2.3763498112687
19	6953	4.35	2.3763519175759
19	6988	4.36	2.3763540737162
19	6989	4.37	2.3763562782899
19	6990	4.38	2.3763585299159
19	6991	4.39	2.3763608272299
19	6992	4.4	2.3763631688848
19	7031	4.41	2.3763655535531
19	7066	4.42	2.3763679799232
19	7101	4.43	2.3763704467016
19	7102	4.44	2.3763729526136
19	7103	4.45	2.3763754963983
19	7139	4.46	2.376378076815
19	7352	4.47	2.3763806926397
19	7353	4.48	2.3763833426658
19	7354	4.49	2.3763860257034
19	7355	4.5	2.3763887405783
19	7395	4.51	2.3763914861336
19	7430	4.52	2.376394261229
19	7465	4.53	2.3763970647416
19	7466	4.54	2.3763998955655
19	7467	4.55	2.3764027526088
19	7502	4.56	2.3764056347982
19	7503	4.57	2.3764085410747
19	7504	4.58	2.3764114703963
19	7505	4.59	2.3764144217366
19	7506	4.6	2.3764173940862
19	7545	4.61	2.3764203864488
19	7580	4.62	2.3764233978462
19	7615	4.63	2.3764264273147
19	7616	4.64	2.3764294739062
19	7617	4.65	2.3764325366868
19	7652	4.66	2.3764356147382
19	7653	4.67	2.3764387071579
19	7654	4.68	2.376441813059
19	7655	4.69	2.3764449315674
19	7656	4.7	2.3764480618232
19	7695	4.71	2.3764512029838
19	7730	4.72	2.3764543542191
19	7765	4.73	2.3764575147136
19	7766	4.74	2.3764606836658
19	7767	4.75	2.3764638602886
19	7802	4.76	2.3764670438076
19	7803	4.77	2.3764702334658
19	7804	4.78	2.3764734285157
19	7805	4.79	2.3764766282246
19	7806	4.8	2.3764798318751
19	7845	4.81	2.3764830387614
19	7880	4.82	2.3764862481906
19	7915	4.83	2.3764894594838
19	7916	4.84	2.3764926719753
19	7917	4.85	2.376495885012
19	7952	4.86	2.3764990979524
19	7953	4.87	2.3765023101691
19	7954	4.88	2.3765055210449
19	7955	4.89	2.3765087299782
19	7956	4.9	2.3765119363773
19	7995	4.91	2.3765151396636
19	8030	4.92	2.3765183392699
19	8065	4.93	2.3765215346402
19	8066	4.94	2.3765247252316
19	8067	4.95	2.3765279105112
19	8102	4.96	2.3765310899603
19	8103	4.97	2.3765342630689
19	8104	4.98	2.3765374293383
19	8105	4.99	2.3765405882828
19	8110	5	2.3765437394267
19	8149	5.01	2.3765468823057
19	8184	5.02	2.3765500164643
19	8219	5.03	2.3765531414595
19	8220	5.04	2.3765562568587
19	8221	5.05	2.3765593622377
19	8256	5.06	2.3765624571852
19	8257	5.07	2.3765655412986
19	8258	5.08	2.3765686141867
19	8259	5.09	2.3765716754655
19	8260	5.1	2.3765747247639
19	8299	5.11	2.3765777617179
19	8334	5.12	2.3765807859735
19	8369	5.13	2.376583797187
19	8370	5.14	2.3765867950246
19	8371	5.15	2.3765897791609
19	8406	5.16	2.3765927492781
19	8407	5.17	2.3765957050694
19	8408	5.18	2.3765986462357
19	8409	5.19	2.3766015724874
19	8410	5.2	2.3766044835441
19	8449	5.21	2.376607379132
19	8484	5.22	2.3766102589864
19	8519	5.23	2.376613122851
19	8520	5.24	2.3766159704795
19	8521	5.25	2.3766188016301
19	8556	5.26	2.3766216160709
19	8557	5.27	2.3766244135788
19	8558	5.28	2.3766271939363
19	8559	5.29	2.3766299569345
19	8560	5.3	2.3766327023733
19	8599	5.31	2.3766354300568
19	8634	5.32	2.3766381397993
19	8669	5.33	2.3766408314207
19	8670	5.34	2.3766435047496
19	8671	5.35	2.3766461596205
19	8706	5.36	2.3766487958734
19	8707	5.37	2.3766514133571
19	8708	5.38	2.3766540119276
19	8709	5.39	2.3766565914453
19	8710	5.4	2.3766591517777
19	8749	5.41	2.376661692798
19	8784	5.42	2.3766642143883
19	8819	5.43	2.3766667164348
19	8820	5.44	2.3766691988295
19	8821	5.45	2.3766716614717
19	8856	5.46	2.3766741042651
19	8857	5.47	2.3766765271204
19	8858	5.48	2.3766789299544
19	8859	5.49	2.3766813126863
19	8860	5.5	2.3766836752445
19	8900	5.51	2.3766860175614
19	9147	5.52	2.3766883395753
19	9182	5.53	2.3766906412274
19	9183	5.54	2.3766929224661
19	9184	5.55	2.3766951832441
19	9220	5.56	2.37669742352
19	9221	5.57	2.3766996432567
19	9222	5.58	2.3767018424215
19	9223	5.59	2.3767040209858
19	9224	5.6	2.3767061789271
19	9263	5.61	2.3767083162271
19	9298	5.62	2.3767104328703
19	9333	5.63	2.3767125288474
19	9334	5.64	2.3767146041529
19	9335	5.65	2.3767166587847
19	9370	5.66	2.3767186927446
19	9371	5.67	2.3767207060407
19	9372	5.68	2.3767226986821
19	9373	5.69	2.376724670684
19	9374	5.7	2.3767266220645
19	9413	5.71	2.3767285528443
19	9448	5.72	2.3767304630489
19	9483	5.73	2.3767323527078
19	9484	5.74	2.3767342218537
19	9485	5.75	2.3767360705206
19	9520	5.76	2.3767378987497
19	9521	5.77	2.3767397065824
19	9522	5.78	2.376741494063
19	9523	5.79	2.3767432612414
19	9524	5.8	2.3767450081692
19	9563	5.81	2.3767467349009
19	9598	5.82	2.3767484414938
19	9633	5.83	2.3767501280067
19	9634	5.84	2.3767517945043
19	9635	5.85	2.3767534410528
19	9670	5.86	2.3767550677197
19	9671	5.87	2.3767566745755
19	9672	5.88	2.3767582616939
19	9673	5.89	2.376759829151
19	9674	5.9	2.3767613770234
19	9713	5.91	2.3767629053933
19	9748	5.92	2.3767644143429
19	9783	5.93	2.3767659039575
19	9784	5.94	2.3767673743237
19	9785	5.95	2.3767688255312
19	9820	5.96	2.376770257671
19	9821	5.97	2.3767716708358
19	9822	5.98	2.3767730651195
19	9823	5.99	2.3767744406207
19	9828	6	2.3767757974378
19	9867	6.01	2.3767771356707
19	9902	6.02	2.3767784554209
19	9937	6.03	2.3767797567929
19	9938	6.04	2.3767810398909
19	9939	6.05	2.3767823048224
19	9974	6.06	2.3767835516947
19	9975	6.07	2.3767847806182
19	9976	6.08	2.3767859917046
19	9977	6.09	2.3767871850645
19	9978	6.1	2.3767883608125
19	10017	6.11	2.3767895190635
19	10052	6.12	2.3767906599337
19	10087	6.13	2.3767917835397
19	10088	6.14	2.3767928899991
19	10089	6.15	2.3767939794314
19	10124	6.16	2.3767950519573
19	10125	6.17	2.3767961076978
19	10126	6.18	2.3767971467751
19	10127	6.19	2.3767981693131
19	10128	6.2	2.3767991754343
19	10167	6.21	2.3768001652639
19	10202	6.22	2.3768011389275
19	10237	6.23	2.3768020965505
19	10238	6.24	2.3768030382599
19	10239	6.25	2.3768039641825
19	10274	6.26	2.376804874447
19	10275	6.27	2.3768057691818
19	10276	6.28	2.3768066485169
19	10277	6.29	2.376807512581
19	10278	6.3	2.3768083615027
19	10317	6.31	2.3768091954151
19	10352	6.32	2.3768100144469
19	10387	6.33	2.3768108187297
19	10388	6.34	2.3768116083953
19	10389	6.35	2.3768123835755
19	10424	6.36	2.3768131444035
19	10425	6.37	2.3768138910097
19	10426	6.38	2.3768146235275
19	10427	6.39	2.3768153420887
19	10428	6.4	2.3768160468269
19	10467	6.41	2.3768167378754
19	10502	6.42	2.3768174153665
19	10537	6.43	2.3768180794321
19	10538	6.44	2.3768187302073
19	10539	6.45	2.3768193678228
19	10574	6.46	2.3768199924139
19	10575	6.47	2.3768206041113
19	10576	6.48	2.3768212030502
19	10577	6.49	2.3768217893616
19	10578	6.5	2.3768223631793
19	10617	6.51	2.3768229246344
19	10652	6.52	2.3768234738607
19	10687	6.53	2.3768240109893
19	10688	6.54	2.3768245361529
19	10689	6.55	2.3768250494826
19	10725	6.56	2.3768255511096
19	10982	6.57	2.3768260411651
19	10983	6.58	2.3768265197791
19	10984	6.59	2.3768269870828
19	10985	6.6	2.3768274432076
19	11025	6.61	2.3768278882821
19	11060	6.62	2.3768283224347
19	11095	6.63	2.3768287457956
19	11096	6.64	2.3768291584935
19	11097	6.65	2.3768295606569
19	11132	6.66	2.3768299524132
19	11133	6.67	2.3768303338896
19	11134	6.68	2.3768307052122
19	11135	6.69	2.3768310665082
19	11136	6.7	2.3768314179022
19	11175	6.71	2.3768317595203
19	11210	6.72	2.3768320914871
19	11245	6.73	2.3768324139272
19	11246	6.74	2.3768327269638
19	11247	6.75	2.3768330307188
19	11282	6.76	2.3768333253156
19	11283	6.77	2.376833610876
19	11284	6.78	2.376833887522
19	11285	6.79	2.3768341553726
19	11286	6.8	2.3768344145485
19	11325	6.81	2.3768346651702
19	11360	6.82	2.3768349073542
19	11395	6.83	2.3768351412195
19	11396	6.84	2.376835366884
19	11397	6.85	2.3768355844628
19	11432	6.86	2.3768357940722
19	11433	6.87	2.3768359958272
19	11434	6.88	2.3768361898431
19	11435	6.89	2.3768363762333
19	11436	6.9	2.3768365551102
19	11475	6.91	2.3768367265874
19	11510	6.92	2.3768368907745
19	11545	6.93	2.3768370477837
19	11546	6.94	2.3768371977246
19	11547	6.95	2.3768373407066
19	11582	6.96	2.3768374768378
19	11583	6.97	2.376837606225
19	11584	6.98	2.3768377289764
19	11585	6.99	2.3768378451971
19	11590	7	2.3768379549926
19	11629	7.01	2.3768380584682
19	11664	7.02	2.3768381557264
19	11699	7.03	2.3768382468698
19	11700	7.04	2.3768383320024
19	11701	7.05	2.3768384112238
[...]
2	65244	55.23	931.55726268403
2	65245	55.24	931.69615168374
2	65246	55.25	931.83504068346
2	65265	55.26	931.97392968317
2	65266	55.27	932.11281868289
2	65267	55.28	932.2517076826
2	65268	55.29	932.39059668231
2	65269	55.3	932.52948568203
2	65272	55.31	932.66837468175
2	65273	55.32	932.80726368146
2	65292	55.33	932.94615268118
2	65293	55.34	933.0850416809
2	65294	55.35	933.22393068061
2	65313	55.36	933.36281968033
2	65314	55.37	933.50170868005
2	65315	55.38	933.64059767977
2	65316	55.39	933.77948667949
2	65317	55.4	933.91837567921
2	65320	55.41	934.05726467893
2	65321	55.42	934.19615367865
2	65340	55.43	934.33504267837
2	65341	55.44	934.47393167809
2	65342	55.45	934.61282067782
2	65361	55.46	934.75170967754
2	65362	55.47	934.89059867726
2	65363	55.48	935.02948767698
2	65364	55.49	935.16837667671
2	65365	55.5	935.30726567643
2	65368	55.51	935.44615467616
2	65369	55.52	935.58504367588
2	65388	55.53	935.72393267561
2	65389	55.54	935.86282167533
2	65390	55.55	936.00171067506
2	65409	55.56	936.14059967479
2	65410	55.57	936.27948867451
2	65411	55.58	936.41837767424
2	65412	55.59	936.55726667397
2	65413	55.6	936.6961556737
2	65416	55.61	936.83504467343
2	65417	55.62	936.97393367316
2	65436	55.63	937.11282267289
2	65437	55.64	937.25171167262
2	65438	55.65	937.39060067235
2	65457	55.66	937.52948967208
2	65458	55.67	937.66837867181
2	65459	55.68	937.80726767154
2	65460	55.69	937.94615667127
2	65461	55.7	938.08504567101
2	65464	55.71	938.22393467074
2	65465	55.72	938.36282367047
2	65484	55.73	938.50171267021
2	65485	55.74	938.64060166994
2	65486	55.75	938.77949066968
2	65505	55.76	938.91837966941
2	65506	55.77	939.05726866915
2	65507	55.78	939.19615766888
2	65508	55.79	939.33504666862
2	65509	55.8	939.47393566836
2	65512	55.81	939.61282466809
2	65513	55.82	939.75171366783
2	65532	55.83	939.89060266757
2	65533	55.84	940.02949166731
2	65534	55.85	940.16838066705
2	65553	55.86	940.30726966679
2	65554	55.87	940.44615866653
2	65555	55.88	940.58504766627
2	65556	55.89	940.72393666601
2	65557	55.9	940.86282566575
2	65560	55.91	941.00171466549
2	65561	55.92	941.14060366523
2	65580	55.93	941.27949266497
2	65581	55.94	941.41838166472
2	65582	55.95	941.55727066446
2	65601	55.96	941.6961596642
2	65602	55.97	941.83504866395
2	65603	55.98	941.97393766369
2	65604	55.99	942.11282666343
2	65607	56	942.25171566318
2	65610	56.01	942.39060466292
2	65611	56.02	942.52949366267
2	65630	56.03	942.66838266242
2	65631	56.04	942.80727166216
2	65632	56.05	942.94616066191
2	65651	56.06	943.08504966166
2	65652	56.07	943.2239386614
2	65653	56.08	943.36282766115
2	65654	56.09	943.5017166609
2	65655	56.1	943.64060566065
2	65658	56.11	943.7794946604
2	65659	56.12	943.91838366015
2	65678	56.13	944.0572726599
2	65679	56.14	944.19616165965
2	65680	56.15	944.3350506594
2	65699	56.16	944.47393965915
2	65700	56.17	944.6128286589
2	65701	56.18	944.75171765866
2	65702	56.19	944.89060665841
2	65703	56.2	945.02949565816
2	65706	56.21	945.16838465791
2	65707	56.22	945.30727365767
2	65726	56.23	945.44616265742
2	65727	56.24	945.58505165718
2	65728	56.25	945.72394065693
2	65747	56.26	945.86282965669
2	65748	56.27	946.00171865644
2	65749	56.28	946.1406076562
2	65750	56.29	946.27949665595
2	65751	56.3	946.41838565571
2	65754	56.31	946.55727465547
2	65755	56.32	946.69616365522
2	65774	56.33	946.83505265498
2	65775	56.34	946.97394165474
2	65776	56.35	947.1128306545
2	65795	56.36	947.25171965426
2	65796	56.37	947.39060865402
2	65797	56.38	947.52949765378
2	65798	56.39	947.66838665354
2	65799	56.4	947.8072756533
2	65802	56.41	947.94616465306
2	65803	56.42	948.08505365282
2	65822	56.43	948.22394265258
2	65823	56.44	948.36283165234
2	65824	56.45	948.5017206521
2	65843	56.46	948.64060965187
2	65844	56.47	948.77949865163
2	65845	56.48	948.91838765139
2	65846	56.49	949.05727665116
2	65847	56.5	949.19616565092
2	65850	56.51	949.33505465069
2	65851	56.52	949.47394365045
2	65870	56.53	949.61283265022
2	65871	56.54	949.75172164998
2	65872	56.55	949.89061064975
2	65891	56.56	950.02949964951
2	65892	56.57	950.16838864928
2	65893	56.58	950.30727764905
2	65894	56.59	950.44616664881
2	65895	56.6	950.58505564858
2	65898	56.61	950.72394464835
2	65899	56.62	950.86283364812
2	65918	56.63	951.00172264789
2	65919	56.64	951.14061164766
2	65920	56.65	951.27950064743
2	65939	56.66	951.4183896472
2	65940	56.67	951.55727864697
2	65941	56.68	951.69616764674
2	65942	56.69	951.83505664651
2	65943	56.7	951.97394564628
2	65946	56.71	952.11283464605
2	65947	56.72	952.25172364582
2	65966	56.73	952.3906126456
2	65967	56.74	952.52950164537
2	65968	56.75	952.66839064514
2	65987	56.76	952.80727964491
2	65988	56.77	952.94616864469
2	65989	56.78	953.08505764446
2	65990	56.79	953.22394664424
2	65991	56.8	953.36283564401
2	65994	56.81	953.50172464379
2	65995	56.82	953.64061364356
2	66014	56.83	953.77950264334
2	66015	56.84	953.91839164312
2	66016	56.85	954.05728064289
2	66035	56.86	954.19616964267
2	66036	56.87	954.33505864245
2	66037	56.88	954.47394764222
2	66038	56.89	954.612836642
2	66039	56.9	954.75172564178
2	66042	56.91	954.89061464156
2	66043	56.92	955.02950364134
2	66062	56.93	955.16839264112
2	66063	56.94	955.3072816409
2	66064	56.95	955.44617064068
2	66083	56.96	955.58505964046
2	66084	56.97	955.72394864024
2	66085	56.98	955.86283764002
2	66086	56.99	956.0017266398
2	66089	57	956.14061563958
2	66092	57.01	956.27950463937
2	66093	57.02	956.41839363915
2	66112	57.03	956.55728263893
2	66113	57.04	956.69617163871
2	66114	57.05	956.8350606385
2	66133	57.06	956.97394963828
2	66134	57.07	957.11283863806
2	66135	57.08	957.25172763785
2	66136	57.09	957.39061663763
2	66137	57.1	957.52950563742
2	66140	57.11	957.66839463721
2	66141	57.12	957.80728363699
2	66160	57.13	957.94617263678
2	66161	57.14	958.08506163656
2	66162	57.15	958.22395063635
2	66181	57.16	958.36283963614
2	66182	57.17	958.50172863593
2	66183	57.18	958.64061763571
2	66184	57.19	958.7795066355
2	66185	57.2	958.91839563529
2	66188	57.21	959.05728463508
2	66189	57.22	959.19617363487
2	66208	57.23	959.33506263466
2	66209	57.24	959.47395163445
2	66210	57.25	959.61284063424
2	66229	57.26	959.75172963403
2	66230	57.27	959.89061863382
2	66231	57.28	960.02950763361
2	66232	57.29	960.1683966334
2	66233	57.3	960.30728563319
2	66236	57.31	960.44617463299
2	66237	57.32	960.58506363278
2	66256	57.33	960.72395263257
2	66257	57.34	960.86284163236
2	66258	57.35	961.00173063216
2	66277	57.36	961.14061963195
2	66278	57.37	961.27950863174
2	66279	57.38	961.41839763154
2	66280	57.39	961.55728663133
2	66281	57.4	961.69617563113
2	66284	57.41	961.83506463092
2	66285	57.42	961.97395363072
2	66304	57.43	962.11284263052
2	66305	57.44	962.25173163031
2	66306	57.45	962.39062063011
2	66325	57.46	962.52950962991
2	66326	57.47	962.6683986297
2	66327	57.48	962.8072876295
2	66328	57.49	962.9461766293
2	66329	57.5	963.0850656291
2	66332	57.51	963.22395462889
2	66333	57.52	963.36284362869
2	66352	57.53	963.50173262849
2	66353	57.54	963.64062162829
2	66354	57.55	963.77951062809
2	66373	57.56	963.91839962789
2	66374	57.57	964.05728862769
2	66375	57.58	964.19617762749
2	66376	57.59	964.33506662729
2	66377	57.6	964.4739556271
2	66380	57.61	964.6128446269
2	66381	57.62	964.7517336267
2	66400	57.63	964.8906226265
2	66401	57.64	965.0295116263
2	66402	57.65	965.16840062611
2	66421	57.66	965.30728962591
2	66422	57.67	965.44617862571
2	66423	57.68	965.58506762552
2	66424	57.69	965.72395662532
2	66425	57.7	965.86284562513
2	66428	57.71	966.00173462493
2	66429	57.72	966.14062362474
2	66448	57.73	966.27951262454
2	66449	57.74	966.41840162435
2	66450	57.75	966.55729062415
2	66469	57.76	966.69617962396
2	66470	57.77	966.83506862377
2	66471	57.78	966.97395762357
2	66472	57.79	967.11284662338
2	66473	57.8	967.25173562319
2	66476	57.81	967.39062462299
2	66477	57.82	967.5295136228
2	66496	57.83	967.66840262261
2	66497	57.84	967.80729162242
2	66498	57.85	967.94618062223
2	66517	57.86	968.08506962204
2	66518	57.87	968.22395862185
2	66519	57.88	968.36284762166
2	66520	57.89	968.50173662147
2	66521	57.9	968.64062562128
2	66524	57.91	968.77951462109
2	66525	57.92	968.9184036209
2	66544	57.93	969.05729262071
2	66545	57.94	969.19618162052
2	66546	57.95	969.33507062033
2	66565	57.96	969.47395962015
2	66566	57.97	969.61284861996
2	66567	57.98	969.75173761977
2	66568	57.99	969.89062661958
2	66571	58	970.0295156194
2	66574	58.01	970.16840461921
2	66575	58.02	970.30729361903
2	66594	58.03	970.44618261884
2	66595	58.04	970.58507161865
2	66596	58.05	970.72396061847
2	66615	58.06	970.86284961828
2	66616	58.07	971.0017386181
2	66617	58.08	971.14062761791
2	66618	58.09	971.27951661773
2	66619	58.1	971.41840561755
2	66622	58.11	971.55729461736
2	66623	58.12	971.69618361718
2	66642	58.13	971.835072617
2	66643	58.14	971.97396161681
2	66644	58.15	972.11285061663
2	66663	58.16	972.25173961645
2	66664	58.17	972.39062861627
2	66665	58.18	972.52951761609
2	66666	58.19	972.66840661591
2	66667	58.2	972.80729561573
2	66670	58.21	972.94618461554
2	66671	58.22	973.08507361536
2	66690	58.23	973.22396261518
2	66691	58.24	973.362851615
2	66692	58.25	973.50174061482
2	66711	58.26	973.64062961465
2	66712	58.27	973.77951861447
2	66713	58.28	973.91840761429
2	66714	58.29	974.05729661411
2	66715	58.3	974.19618561393
2	66718	58.31	974.33507461375
2	66719	58.32	974.47396361358
2	66738	58.33	974.6128526134
2	66739	58.34	974.75174161322
2	66740	58.35	974.89063061304
2	66759	58.36	975.02951961287
2	66760	58.37	975.16840861269
2	66761	58.38	975.30729761252
2	66762	58.39	975.44618661234
2	66763	58.4	975.58507561217
2	66766	58.41	975.72396461199
2	66767	58.42	975.86285361182
2	66786	58.43	976.00174261164
2	66787	58.44	976.14063161147
2	66788	58.45	976.27952061129
2	66807	58.46	976.41840961112
2	66808	58.47	976.55729861095
2	66809	58.48	976.69618761077
2	66810	58.49	976.8350766106
2	66811	58.5	976.97396561043
2	66814	58.51	977.11285461025
2	66815	58.52	977.25174361008
2	66834	58.53	977.39063260991
2	66835	58.54	977.52952160974
2	66836	58.55	977.66841060957
2	66855	58.56	977.8072996094
2	66856	58.57	977.94618860923
2	66857	58.58	978.08507760906
2	66858	58.59	978.22396660889
2	66859	58.6	978.36285560872
2	66862	58.61	978.50174460855
2	66863	58.62	978.64063360838
2	66882	58.63	978.77952260821
2	66883	58.64	978.91841160804
2	66884	58.65	979.05730060787
2	66903	58.66	979.1961896077
2	66904	58.67	979.33507860753
2	66905	58.68	979.47396760736
2	66906	58.69	979.6128566072
2	66907	58.7	979.75174560703
2	66910	58.71	979.89063460686
2	66911	58.72	980.0295236067
2	66930	58.73	980.16841260653
2	66931	58.74	980.30730160636
2	66932	58.75	980.4461906062
2	66951	58.76	980.58507960603
2	66952	58.77	980.72396860587
2	66953	58.78	980.8628576057
2	66954	58.79	981.00174660554
2	66955	58.8	981.14063560537
2	66958	58.81	981.27952460521
2	66959	58.82	981.41841360504
2	66978	58.83	981.55730260488
2	66979	58.84	981.69619160471
2	66980	58.85	981.83508060455
2	66999	58.86	981.97396960439
2	67000	58.87	982.11285860422
2	67001	58.88	982.25174760406
2	67002	58.89	982.3906366039
2	67003	58.9	982.52952560374
2	67006	58.91	982.66841460358
2	67007	58.92	982.80730360341
2	67026	58.93	982.94619260325
2	67027	58.94	983.08508160309
2	67028	58.95	983.22397060293
2	67047	58.96	983.36285960277
2	67048	58.97	983.50174860261
2	67049	58.98	983.64063760245
2	67050	58.99	983.77952660229
2	67053	59	983.91841560213
2	67056	59.01	984.05730460197
2	67057	59.02	984.19619360181
2	67076	59.03	984.33508260165
2	67077	59.04	984.47397160149
2	67078	59.05	984.61286060133
2	67097	59.06	984.75174960118
2	67098	59.07	984.89063860102
2	67099	59.08	985.02952760086
2	67100	59.09	985.1684166007
2	67101	59.1	985.30730560055
2	67104	59.11	985.44619460039
2	67105	59.12	985.58508360023
2	67124	59.13	985.72397260008
2	67125	59.14	985.86286159992
2	67126	59.15	986.00175059976
2	67145	59.16	986.14063959961
2	67146	59.17	986.27952859945
2	67147	59.18	986.4184175993
2	67148	59.19	986.55730659914
2	67149	59.2	986.69619559899
2	67152	59.21	986.83508459883
2	67153	59.22	986.97397359868
2	67172	59.23	987.11286259852
2	67173	59.24	987.25175159837
2	67174	59.25	987.39064059822
2	67193	59.26	987.52952959806
2	67194	59.27	987.66841859791
2	67195	59.28	987.80730759776
2	67196	59.29	987.94619659761
2	67197	59.3	988.08508559745
2	67200	59.31	988.2239745973
2	67201	59.32	988.36286359715
2	67220	59.33	988.501752597
2	67221	59.34	988.64064159685
2	67222	59.35	988.77953059669
2	67241	59.36	988.91841959654
2	67242	59.37	989.05730859639
2	67243	59.38	989.19619759624
2	67244	59.39	989.33508659609
2	67245	59.4	989.47397559594
2	67248	59.41	989.61286459579
2	67249	59.42	989.75175359564
2	67268	59.43	989.89064259549
2	67269	59.44	990.02953159534
2	67270	59.45	990.1684205952
2	67289	59.46	990.30730959505
2	67290	59.47	990.4461985949
2	67291	59.48	990.58508759475
2	67292	59.49	990.7239765946
2	67293	59.5	990.86286559446
2	67296	59.51	991.00175459431
2	67297	59.52	991.14064359416
2	67316	59.53	991.27953259401
2	67317	59.54	991.41842159387
2	67318	59.55	991.55731059372
2	67337	59.56	991.69619959357
2	67338	59.57	991.83508859343
2	67339	59.58	991.97397759328
2	67340	59.59	992.11286659314
2	67341	59.6	992.25175559299
2	67344	59.61	992.39064459285
2	67345	59.62	992.5295335927
2	67364	59.63	992.66842259256
2	67365	59.64	992.80731159241
2	67366	59.65	992.94620059227
2	67385	59.66	993.08508959212
2	67386	59.67	993.22397859198
2	67387	59.68	993.36286759183
2	67388	59.69	993.50175659169
2	67389	59.7	993.64064559155
2	67392	59.71	993.77953459141
2	67393	59.72	993.91842359126
2	67412	59.73	994.05731259112
2	67413	59.74	994.19620159098
2	67414	59.75	994.33509059084
2	67433	59.76	994.47397959069
2	67434	59.77	994.61286859055
2	67435	59.78	994.75175759041
2	67436	59.79	994.89064659027
2	67437	59.8	995.02953559013
2	67440	59.81	995.16842458999
2	67441	59.82	995.30731358985
2	67460	59.83	995.44620258971
2	67461	59.84	995.58509158957
2	67462	59.85	995.72398058943
2	67481	59.86	995.86286958929
2	67482	59.87	996.00175858915
2	67483	59.88	996.14064758901
2	67484	59.89	996.27953658887
2	67485	59.9	996.41842558873
2	67488	59.91	996.55731458859
2	67489	59.92	996.69620358845
2	67508	59.93	996.83509258832
2	67509	59.94	996.97398158818
2	67510	59.95	997.11287058804
2	67529	59.96	997.2517595879
2	67530	59.97	997.39064858777
2	67531	59.98	997.52953758763
2	67532	59.99	997.66842658749
2	67535	60	997.80731558736
2	67538	60.01	997.94620458722
2	67539	60.02	998.08509358708
2	67558	60.03	998.22398258695
2	67559	60.04	998.36287158681
2	67560	60.05	998.50176058668
2	67579	60.06	998.64064958654
2	67580	60.07	998.77953858641
2	67581	60.08	998.91842758627
2	67582	60.09	999.05731658614
2	67583	60.1	999.196205586
2	67586	60.11	999.33509458587
2	67587	60.12	999.47398358573
2	67606	60.13	999.6128725856
2	67607	60.14	999.75176158547
2	67608	60.15	999.89065058533
2	67627	60.16	1000.0295395852
2	67628	60.17	1000.1684285851
2	67629	60.18	1000.3073175849
2	67630	60.19	1000.4462065848
2	67631	60.2	1000.5850955847
2	67634	60.21	1000.7239845845
2	67635	60.22	1000.8628735844
2	67654	60.23	1001.0017625843
2	67655	60.24	1001.1406515841
2	67656	60.25	1001.279540584
2	67675	60.26	1001.4184295839
2	67676	60.27	1001.5573185837
2	67677	60.28	1001.6962075836
2	67678	60.29	1001.8350965835
2	67679	60.3	1001.9739855834
2	67682	60.31	1002.1128745832
2	67683	60.32	1002.2517635831
2	67702	60.33	1002.390652583
2	67703	60.34	1002.5295415828
2	67704	60.35	1002.6684305827
2	67723	60.36	1002.8073195826
2	67724	60.37	1002.9462085824
2	67725	60.38	1003.0850975823
2	67726	60.39	1003.2239865822
2	67727	60.4	1003.3628755821
2	67730	60.41	1003.5017645819
2	67731	60.42	1003.6406535818
2	67750	60.43	1003.7795425817
2	67751	60.44	1003.9184315816
2	67752	60.45	1004.0573205814
2	67771	60.46	1004.1962095813
2	67772	60.47	1004.3350985812
2	67773	60.48	1004.473987581
2	67774	60.49	1004.6128765809
2	67775	60.5	1004.7517655808
2	67778	60.51	1004.8906545807
2	67779	60.52	1005.0295435805
2	67798	60.53	1005.1684325804
2	67799	60.54	1005.3073215803
2	67800	60.55	1005.4462105802
2	67819	60.56	1005.58509958
2	67820	60.57	1005.7239885799
2	67821	60.58	1005.8628775798
2	67822	60.59	1006.0017665797
2	67823	60.6	1006.1406555795
2	67826	60.61	1006.2795445794
2	67827	60.62	1006.4184335793
2	67846	60.63	1006.5573225792
2	67847	60.64	1006.696211579
2	67848	60.65	1006.8351005789
2	67867	60.66	1006.9739895788
2	67868	60.67	1007.1128785787
2	67869	60.68	1007.2517675786
2	67870	60.69	1007.3906565784
2	67871	60.7	1007.5295455783
2	67874	60.71	1007.6684345782
2	67875	60.72	1007.8073235781
2	67894	60.73	1007.9462125779
2	67895	60.74	1008.0851015778
2	67896	60.75	1008.2239905777
2	67915	60.76	1008.3628795776
2	67916	60.77	1008.5017685775
2	67917	60.78	1008.6406575773
2	67918	60.79	1008.7795465772
2	67919	60.8	1008.9184355771
2	67922	60.81	1009.057324577
2	67923	60.82	1009.1962135769
2	67942	60.83	1009.3351025767
2	67943	60.84	1009.4739915766
2	67944	60.85	1009.6128805765
2	67963	60.86	1009.7517695764
2	67964	60.87	1009.8906585763
2	67965	60.88	1010.0295475761
2	67966	60.89	1010.168436576
2	67967	60.9	1010.3073255759
2	67970	60.91	1010.4462145758
2	67971	60.92	1010.5851035757
2	67990	60.93	1010.7239925755
2	67991	60.94	1010.8628815754
2	67992	60.95	1011.0017705753
2	68011	60.96	1011.1406595752
2	68012	60.97	1011.2795485751
2	68013	60.98	1011.418437575
2	68014	60.99	1011.5573265748
2	68017	61	1011.6962155747
2	68020	61.01	1011.8351045746
2	68021	61.02	1011.9739935745
2	68040	61.03	1012.1128825744
2	68041	61.04	1012.2517715743
2	68042	61.05	1012.3906605741
2	68061	61.06	1012.529549574
2	68062	61.07	1012.6684385739
2	68063	61.08	1012.8073275738
2	68064	61.09	1012.9462165737
2	68065	61.1	1013.0851055736
2	68068	61.11	1013.2239945734
2	68069	61.12	1013.3628835733
2	68088	61.13	1013.5017725732
2	68089	61.14	1013.6406615731
2	68090	61.15	1013.779550573
2	68109	61.16	1013.9184395729
2	68110	61.17	1014.0573285728
2	68111	61.18	1014.1962175726
2	68112	61.19	1014.3351065725
2	68113	61.2	1014.4739955724
2	68116	61.21	1014.6128845723
2	68117	61.22	1014.7517735722
2	68136	61.23	1014.8906625721
2	68137	61.24	1015.029551572
2	68138	61.25	1015.1684405719
2	68157	61.26	1015.3073295717
2	68158	61.27	1015.4462185716
2	68159	61.28	1015.5851075715
2	68160	61.29	1015.7239965714
2	68161	61.3	1015.8628855713
2	68164	61.31	1016.0017745712
2	68165	61.32	1016.1406660221
2	68176	61.33	1016.2795647778
2	68177	61.34	1016.4184755972
2	68178	61.35	1016.5574031456
2	68179	61.36	1016.6963519969
2	68180	61.37	1016.8353266355
2	68181	61.38	1016.9743314577
2	68182	61.39	1017.1133707735
2	68183	61.4	1017.2524488086
2	68185	61.41	1017.3915697058
2	68186	61.42	1017.5307375265
2	68197	61.43	1017.6699562528
2	68198	61.44	1017.8092297883
2	68199	61.45	1017.9485619604
2	68200	61.46	1018.0879565212
2	68201	61.47	1018.2274171495
2	68202	61.48	1018.3669474518
2	68203	61.49	1018.5065509638
2	68204	61.5	1018.646231152
2	68206	61.51	1018.785991415
2	68207	61.52	1018.9258350845
2	68218	61.53	1019.0657654273
2	68219	61.54	1019.2057856456
2	68220	61.55	1019.3458988793
2	68221	61.56	1019.4861082064
2	68222	61.57	1019.6264166448
2	68223	61.58	1019.766827153
2	68224	61.59	1019.9073426316
2	68225	61.6	1020.0479659244
2	68227	61.61	1020.1886998192
2	68228	61.62	1020.3295470495
2	68239	61.63	1020.4705102949
2	68240	61.64	1020.6115921824
2	68241	61.65	1020.7527952879
2	68242	61.66	1020.8941221364
2	68243	61.67	1021.0355752036
2	68244	61.68	1021.1771569165
2	68245	61.69	1021.3188696547
2	68246	61.7	1021.4607157509
2	68248	61.71	1021.6026974923
2	68249	61.72	1021.7448171211
2	68260	61.73	1021.8870768356
2	68261	61.74	1022.029478791
2	68262	61.75	1022.1720251002
2	68263	61.76	1022.3147178347
2	68264	61.77	1022.4575590254
2	68265	61.78	1022.6005506634
2	68266	61.79	1022.7436947006
2	68267	61.8	1022.8869930508
2	68269	61.81	1023.0304475902
2	68270	61.82	1023.1740601582
2	68281	61.83	1023.3178325583
2	68282	61.84	1023.4617665583
2	68283	61.85	1023.6058638917
2	68284	61.86	1023.7501262577
2	68285	61.87	1023.8945553225
2	68286	61.88	1024.0391527193
2	68287	61.89	1024.1839200495
2	68288	61.9	1024.328858883
2	68290	61.91	1024.473970759
2	68291	61.92	1024.6192571865
2	68302	61.93	1024.7647196448

