version 3
run OvertakeNoGui-378-20241104-10:09:33-93605
attr configname OvertakeNoGui
attr datetime 20241104-10:09:33
attr datetimef 20241104-100933
attr experiment OvertakeNoGui
attr inifile omnetpp.ini
attr iterationvars "$leaderHeadway=1.2, $leaderSpeed=50, $controller=0, $pCSpeed=63, $pDeltaC=470"
attr iterationvarsd leaderHeadway=1.2/leaderSpeed=50/controller=0/pCSpeed=63/pDeltaC=470
attr iterationvarsf leaderHeadway=1.2,leaderSpeed=50,controller=0,pCSpeed=63,pDeltaC=470-
attr measurement "$leaderHeadway=1.2, $leaderSpeed=50, $controller=0, $pCSpeed=63, $pDeltaC=470"
attr network Overtake
attr processid 93605
attr repetition 0
attr replication #0
attr resultdir results
attr runnumber 378
attr seedset 0
itervar controller 0
itervar leaderHeadway 1.2
itervar leaderSpeed 50
itervar pCSpeed 63
itervar pDeltaC 470
config image-path ../../../../veins/images;../../images
config *.manager.command "\"sumo\""
config *.manager.ignoreGuiCommands true
config *.node[*].scenario_type "\"OvertakeScenario\""
config output-vector-file results/OvertakeNoGui_63_470_0.vec
config output-scalar-file results/OvertakeNoGui_63_470_0.sca
config cmdenv-express-mode false
config cmdenv-autoflush true
config cmdenv-status-frequency 10s
config num-rngs 6
config cmdenv-output-file log.txt
config cmdenv-redirect-output true
config network Overtake
config debug-on-errors true
config print-undisposed true
config *.playgroundSizeX 65000m
config *.playgroundSizeY 25000m
config *.playgroundSizeZ 50m
config sim-time-limit "360 s"
config *.annotations.draw false
config *.obstacles.debug false
config *.world.useTorus false
config *.world.use2D false
config *.manager.updateInterval 0.01s
config *.manager.host "\"localhost\""
config *.manager.moduleType "\"vtypeauto=org.car2x.plexe.PlatoonCar vtypehuman=0\""
config *.manager.moduleName "\"vtypeauto=node vtypehuman=0\""
config *.manager.moduleDisplayString "\"\""
config *.manager.autoShutdown true
config *.manager.margin 25
config *.manager.order -1
config *.connectionManager.sendDirect true
config *.connectionManager.maxInterfDist 2600m
config *.connectionManager.drawMaxIntfDist false
config *.**.nic.mac1609_4.useServiceChannel false
config *.**.nic.mac1609_4.txPower 100mW
config *.**.nic.mac1609_4.bitrate 6Mbps
config *.**.nic.mac1609_4.useAcks true
config *.**.nic.mac1609_4.ackErrorRate 0.0
config *.**.nic.mac1609_4.frameErrorRate 0.0
config *.**.nic.phy80211p.minPowerLevel -94dBm
config *.**.nic.phy80211p.maxTXPower 100mW
config *.**.nic.phy80211p.useNoiseFloor true
config *.**.nic.phy80211p.noiseFloor -95dBm
config *.**.nic.phy80211p.decider "xmldoc(\"config.xml\")"
config *.**.nic.phy80211p.analogueModels "xmldoc(\"config.xml\")"
config *.**.nic.phy80211p.usePropagationDelay true
config *.node[*].mobility.x 0
config *.node[*].mobility.y 0
config *.node[*].mobility.z 1.895
config *.shockwave[*].mobility.x 0
config *.shockwave[*].mobility.y 0
config *.shockwave[*].mobility.z 1.895
config seed-set 0
config **.seed 0
config *.node[*].prot.rng-0 2
config *.node[*].appl.rng-0 3
config *.node[*].scenario.rng-0 4
config *.manager.configFile "\"./sumocfg/overtake.sumo.cfg\""
config *.manager.launchConfig "xmldoc(\"./sumocfg/overtake.launchd.xml\")"
config *.node[*].helper_type "\"PositionHelper\""
config *.node[*].scenario.caccC1 0.5
config *.node[*].scenario.caccXi 1
config *.node[*].scenario.caccOmegaN "0.2 Hz"
config *.node[*].scenario.caccSpacing "5 m"
config *.node[*].scenario.engineTau "0.5 s"
config *.node[*].scenario.ploegH "0.5 s"
config *.node[*].scenario.ploegKp 0.2
config *.node[*].scenario.ploegKd 0.7
config *.node[*].scenario.useRealisticEngine false
config *.node[*].scenario.targetController "\"CACC\""
config *.node[*].scenario.accHeadway "0.1 s"
config *.node[*].scenario.leaderHeadway "1.2 s"
config *.node[*].scenario.leaderSpeed "50 kmph"
config *.node[*].appl_type "\"OvertakeApp\""
config *.node[*].appl.*.scalar-recording true
config *.node[*].appl.*.vector-recording true
config *.node[*].appl.overtakeManeuver "\"OvertakeManeuver\""
config *.node[*].protocol_type "\"SimplePlatooningBeaconing\""
config *.node[*].prot.*.scalar-recording true
config *.node[*].prot.*.vector-recording true
config *.node[*].prot.beaconingInterval "0.1 s"
config *.node[*].prot.priority 4
config *.node[*].prot.packetSize 200
config *.node[*].prot.useControllerAcceleration true
config **.traffic_type "\"OvertakeTrafficManager\""
config **.traffic.platoonInsertTime "0.1 s"
config **.traffic.platooningVType "\"vtypeauto\""
config **.numericController 0
config **.traffic.platoonInsertDistance 5m
config **.traffic.platoonInsertHeadway 0s
config **.traffic.platoonLeaderHeadway 1.2s
config **.traffic.platoonASpeed 50kmph
config **.traffic.platoonBSpeed 100kmph
config **.traffic.platoonCSpeed 63kmph
config **.traffic.platoonSizeA 2
config **.traffic.platoonSizeB 1
config **.traffic.platoonSizeC 1
config **.traffic.initialPositionDeltaA 150
config **.traffic.initialPositionDeltaB 50
config **.traffic.initialPositionDeltaC 470
config **.traffic.controller "\"CACC\""
config **.scalar-recording true
config **.vector-recording true

vector 0 Overtake.node[0].mobility posx ETV
vector 1 Overtake.node[0].mobility posy ETV
vector 2 Overtake.node[1].mobility posx ETV
vector 3 Overtake.node[1].mobility posy ETV
vector 4 Overtake.node[2].mobility posx ETV
vector 5 Overtake.node[2].mobility posy ETV
vector 6 Overtake.node[3].mobility posx ETV
vector 7 Overtake.node[3].mobility posy ETV
vector 8 Overtake.node[0].mobility speed ETV
vector 9 Overtake.node[1].mobility speed ETV
vector 10 Overtake.node[2].mobility speed ETV
vector 11 Overtake.node[3].mobility speed ETV
vector 12 Overtake.node[0].mobility acceleration ETV
vector 13 Overtake.node[0].mobility co2emission ETV
vector 14 Overtake.node[1].mobility acceleration ETV
vector 15 Overtake.node[1].mobility co2emission ETV
vector 16 Overtake.node[2].mobility acceleration ETV
vector 17 Overtake.node[2].mobility co2emission ETV
vector 18 Overtake.node[3].mobility acceleration ETV
vector 19 Overtake.node[3].mobility co2emission ETV
vector 20 Overtake.node[0].appl distance ETV
vector 21 Overtake.node[0].appl relativeSpeed ETV
vector 22 Overtake.node[0].appl nodeId ETV
vector 23 Overtake.node[0].appl acceleration ETV
vector 24 Overtake.node[0].appl controllerAcceleration ETV
vector 25 Overtake.node[0].appl speed ETV
vector 26 Overtake.node[0].appl posx ETV
vector 27 Overtake.node[0].appl posy ETV
vector 28 Overtake.node[1].appl distance ETV
vector 29 Overtake.node[1].appl relativeSpeed ETV
vector 30 Overtake.node[1].appl nodeId ETV
vector 31 Overtake.node[1].appl acceleration ETV
vector 32 Overtake.node[1].appl controllerAcceleration ETV
vector 33 Overtake.node[1].appl speed ETV
vector 34 Overtake.node[1].appl posx ETV
vector 35 Overtake.node[1].appl posy ETV
vector 36 Overtake.node[2].appl distance ETV
vector 37 Overtake.node[2].appl relativeSpeed ETV
vector 38 Overtake.node[2].appl nodeId ETV
vector 39 Overtake.node[2].appl acceleration ETV
vector 40 Overtake.node[2].appl controllerAcceleration ETV
vector 41 Overtake.node[2].appl speed ETV
vector 42 Overtake.node[2].appl posx ETV
vector 43 Overtake.node[2].appl posy ETV
vector 44 Overtake.node[3].appl distance ETV
vector 45 Overtake.node[3].appl relativeSpeed ETV
vector 46 Overtake.node[3].appl nodeId ETV
vector 47 Overtake.node[3].appl acceleration ETV
vector 48 Overtake.node[3].appl controllerAcceleration ETV
vector 49 Overtake.node[3].appl speed ETV
vector 50 Overtake.node[3].appl posx ETV
vector 51 Overtake.node[3].appl posy ETV
vector 52 Overtake.node[1].prot leaderDelay ETV
vector 53 Overtake.node[1].prot leaderDelayId ETV
vector 54 Overtake.node[1].prot frontDelay ETV
vector 55 Overtake.node[1].prot frontDelayId ETV
vector 56 Overtake.node[0].prot nodeId ETV
vector 57 Overtake.node[0].prot busyTime ETV
vector 58 Overtake.node[0].prot collisions ETV
vector 59 Overtake.node[1].prot nodeId ETV
vector 60 Overtake.node[1].prot busyTime ETV
vector 61 Overtake.node[1].prot collisions ETV
vector 62 Overtake.node[2].prot nodeId ETV
vector 63 Overtake.node[2].prot busyTime ETV
vector 64 Overtake.node[2].prot collisions ETV
vector 65 Overtake.node[3].prot nodeId ETV
vector 66 Overtake.node[3].prot busyTime ETV
vector 67 Overtake.node[3].prot collisions ETV
48	26	0.21	0
48	176	0.31	0
48	326	0.41	0
48	476	0.51	0
48	626	0.61	0
48	776	0.71	0
48	926	0.81	0
48	1076	0.91	0
48	1230	1.01	0
48	1381	1.11	0
48	1532	1.21	0
48	1683	1.31	0
48	2099	1.41	-0.2205
48	2249	1.51	-0.2205
48	2399	1.61	-0.2205
48	2549	1.71	-0.2205
48	2699	1.81	-0.2205
48	2849	1.91	-0.2205
48	3003	2.01	-0.2205
48	3153	2.11	-0.2205
48	3303	2.21	-0.2205
48	3453	2.31	-0.2205
48	3603	2.41	-0.2205
48	3753	2.51	-0.2205
48	3903	2.61	-0.2205
48	4053	2.71	-0.2205
48	4203	2.81	-0.2205
48	4353	2.91	-0.2205
48	4507	3.01	-0.2205
48	4657	3.11	-0.2205
48	4807	3.21	-0.2205
48	4957	3.31	-0.2205
48	5107	3.41	-0.2205
48	5257	3.51	-0.2205
48	5407	3.61	-0.2205
48	5557	3.71	-0.2205
48	5707	3.81	-0.2205
48	5857	3.91	-0.2205
48	6011	4.01	-0.2205
48	6161	4.11	-0.2205
48	6311	4.21	-0.2205
48	6461	4.31	-0.2205
48	6611	4.41	-0.2205
48	6761	4.51	-0.2205
48	6911	4.61	-0.2205
48	7061	4.71	-0.2205
48	7211	4.81	-0.2205
48	7361	4.91	-0.2205
48	7515	5.01	-0.2205
48	7665	5.11	-0.2205
48	7815	5.21	-0.2205
48	7965	5.31	-0.2205
48	8115	5.41	-0.2205
48	8265	5.51	-0.2205
48	8415	5.61	-0.2205
48	8565	5.71	-0.2205
48	8715	5.81	-0.2205
48	8865	5.91	-0.2205
48	9019	6.01	-0.2205
48	9169	6.11	-0.2205
48	9319	6.21	-0.2205
48	9469	6.31	-0.2205
48	9619	6.41	-0.2205
48	9769	6.51	-0.2205
48	9919	6.61	-0.2205
48	10069	6.71	-0.2205
48	10219	6.81	-0.2205
48	10369	6.91	-0.2205
48	10523	7.01	-0.2205
48	10673	7.11	-0.2205
48	10823	7.21	-0.2205
48	10973	7.31	-0.2205
48	11123	7.41	-0.2205
48	11273	7.51	-0.2205
48	11423	7.61	-0.2205
48	11573	7.71	-0.2205
48	11723	7.81	-0.2205
48	11873	7.91	-0.2205
48	12027	8.01	-0.2205
48	12177	8.11	-0.2205
48	12327	8.21	-0.2205
48	12477	8.31	-0.2205
48	12627	8.41	-0.2205
48	12777	8.51	-0.2205
48	12927	8.61	-0.2205
48	13077	8.71	-0.2205
48	13227	8.81	-0.2205
48	13377	8.91	-0.2205
48	13531	9.01	-0.2205
48	13681	9.11	-0.2205
48	13831	9.21	-0.2205
48	13981	9.31	-0.2205
48	14131	9.41	-0.2205
48	14281	9.51	-0.2205
48	14431	9.61	-0.2205
48	14581	9.71	-0.2205
48	14731	9.81	-0.2205
48	14881	9.91	-0.2205
48	15035	10.01	-0.2205
48	15185	10.11	-0.2205
48	15335	10.21	-0.2205
48	15485	10.31	-0.2205
48	15635	10.41	-0.2205
48	15785	10.51	-0.2205
48	15935	10.61	-0.2205
48	16085	10.71	-0.2205
48	16235	10.81	-0.2205
48	16385	10.91	-0.2205
48	16539	11.01	-0.2205
48	16689	11.11	-0.2205
48	16839	11.21	-0.2205
48	16989	11.31	-0.2205
48	17140	11.41	-0.2205
48	17290	11.51	-0.2205
48	17440	11.61	-0.2205
48	17590	11.71	-0.2205
48	17740	11.81	-0.2205
48	17891	11.91	1.5
48	18045	12.01	1.5
48	18195	12.11	1.5
48	18345	12.21	1.5
48	18495	12.31	1.5
48	18645	12.41	1.5
48	18795	12.51	1.5
48	18945	12.61	1.5
48	19095	12.71	1.5
48	19245	12.81	1.4901
48	19395	12.91	1.36369
48	19549	13.01	1.23552
48	19699	13.11	1.10822
48	19849	13.21	0.983913
48	19999	13.31	0.86429
48	20149	13.41	0.750656
48	20299	13.51	0.643973
48	20449	13.61	0.544905
48	20599	13.71	0.453862
48	20749	13.81	0.371034
48	20899	13.91	0.296432
48	21053	14.01	0.229915
48	21203	14.11	0.171225
48	21353	14.21	0.120007
48	21503	14.31	0.0758382
48	21653	14.41	0.0382441
48	21803	14.51	0.006718
48	21953	14.61	-0.0192649
48	22103	14.71	-0.0402344
48	22253	14.81	-0.0567151
48	22403	14.91	-0.0692177
48	22557	15.01	-0.0782328
48	22707	15.11	-0.0842251
48	22857	15.21	-0.0876302
48	23007	15.31	-0.0888519
48	23157	15.41	-0.0882604
48	23307	15.51	-0.0861922
48	23457	15.61	-0.0829496
48	23607	15.71	-0.0788018
48	23757	15.81	-0.0739858
48	23907	15.91	-0.0687079
48	24061	16.01	-0.063146
48	24211	16.11	-0.0574506
48	24361	16.21	-0.051748
48	24511	16.31	-0.0461418
48	24661	16.41	-0.0407151
48	24811	16.51	-0.0355331
48	24961	16.61	-0.0306447
48	25111	16.71	-0.0260849
48	25261	16.81	-0.0218764
48	25411	16.91	-0.0180316
48	25565	17.01	-0.0145541
48	25715	17.11	-0.0114403
48	25865	17.21	-0.00868071
48	26015	17.31	-0.00626119
48	26165	17.41	-0.00416405
48	26315	17.51	-0.00236897
48	26465	17.61	-0.000853896
48	26615	17.71	0.00040431
48	26765	17.81	0.00142923
48	26915	17.91	0.00224438
48	27069	18.01	0.00287283
48	27219	18.11	0.00333686
48	27369	18.21	0.00365767
48	27519	18.31	0.00385525
48	27669	18.41	0.00394818
48	27819	18.51	0.0039536
48	27969	18.61	0.00388714
48	28119	18.71	0.0037629
48	28269	18.81	0.00359349
48	28419	18.91	0.00339006
48	28573	19.01	0.00316237
48	28723	19.11	0.00291887
48	28873	19.21	0.00266676
48	29023	19.31	0.00241211
48	29173	19.41	0.00215995
48	29323	19.51	0.00191435
48	29473	19.61	0.00167853
48	29623	19.71	0.00145498
48	29773	19.81	0.00124549
48	29923	19.91	0.00105129
48	30077	20.01	0.00087313
48	30227	20.11	0.000711315
48	30377	20.21	0.000565812
48	30527	20.31	0.0004363
48	30677	20.41	0.00032223
48	30827	20.51	0.000222874
48	30977	20.61	0.000137369
48	31127	20.71	6.47618e-05
48	31277	20.81	4.03699e-06
48	31427	20.91	-4.58509e-05
48	31581	21.01	-8.5954e-05
48	31731	21.11	-0.000117311
48	31881	21.21	-0.00014093
48	32031	21.31	-0.000157779
48	32181	21.41	-0.00016877
48	32331	21.51	-0.00017476
48	32481	21.61	-0.00017654
48	32631	21.71	-0.000174833
48	32781	21.81	-0.000170297
48	32931	21.91	-0.000163522
48	33085	22.01	-0.000155031
48	33235	22.11	-0.000145285
48	33385	22.21	-0.000134683
48	33535	22.31	-0.000123571
48	33685	22.41	-0.000112239
48	33835	22.51	-0.000100929
48	33985	22.61	-8.98413e-05
48	34135	22.71	-7.91339e-05
48	34285	22.81	-6.89308e-05
48	34435	22.91	-5.93243e-05
48	34589	23.01	-5.03796e-05
48	34739	23.11	-4.21383e-05
48	34889	23.21	-3.46217e-05
48	35039	23.31	-2.78345e-05
48	35189	23.41	-2.17675e-05
48	35339	23.51	-1.63999e-05
48	35489	23.61	-1.17025e-05
48	35639	23.71	-7.63912e-06
48	35789	23.81	-4.16871e-06
48	35939	23.91	-1.24699e-06
48	36093	24.01	1.1722e-06
48	36243	24.11	3.13576e-06
48	36393	24.21	4.69032e-06
48	36543	24.31	5.88147e-06
48	36693	24.41	6.75314e-06
48	36843	24.51	7.34709e-06
48	36993	24.61	7.70256e-06
48	37143	24.71	7.85602e-06
48	37293	24.81	7.841e-06
48	37443	24.91	7.68805e-06
48	37597	25.01	7.42468e-06
48	37747	25.11	7.07546e-06
48	37897	25.21	6.66208e-06
48	38047	25.31	6.20347e-06
48	38197	25.41	5.71598e-06
48	38347	25.51	5.21355e-06
48	38497	25.61	4.70787e-06
48	38647	25.71	4.2086e-06
48	38797	25.81	3.72354e-06
48	38947	25.91	3.25884e-06
48	39101	26.01	2.81917e-06
48	39251	26.11	2.40793e-06
48	39401	26.21	2.02737e-06
48	39551	26.31	1.67882e-06
48	39701	26.41	1.36278e-06
48	39851	26.51	1.07907e-06
48	40001	26.61	8.26981e-07
48	40151	26.71	6.05344e-07
48	40301	26.81	4.12667e-07
48	40451	26.91	2.47204e-07
48	40605	27.01	1.07032e-07
48	40755	27.11	-9.87725e-09
48	40905	27.21	-1.05606e-07
48	41055	27.31	-1.82244e-07
48	41205	27.41	-2.41844e-07
48	41355	27.51	-2.86399e-07
48	41505	27.61	-3.17813e-07
48	41655	27.71	-3.37884e-07
48	41805	27.81	-3.48288e-07
48	41955	27.91	-3.50577e-07
48	42109	28.01	-3.46166e-07
48	42259	28.11	-3.36339e-07
48	42409	28.21	-3.22245e-07
48	42559	28.31	-3.04903e-07
48	42709	28.41	-2.85208e-07
48	42859	28.51	-2.63936e-07
48	43009	28.61	-2.41752e-07
48	43159	28.71	-2.19216e-07
48	43309	28.81	-1.96798e-07
48	43459	28.91	-1.74877e-07
48	43613	29.01	-1.53758e-07
48	43763	29.11	-1.33675e-07
48	43913	29.21	-1.14803e-07
48	44063	29.31	-9.72616e-08
48	44213	29.41	-8.11273e-08
48	44363	29.51	-6.64365e-08
48	44513	29.61	-5.3193e-08
48	44663	29.71	-4.13749e-08
48	44813	29.81	-3.09381e-08
48	44963	29.91	-2.18211e-08
48	45117	30.01	-1.39504e-08
48	45267	30.11	-7.24398e-09
48	45417	30.21	-1.61222e-09
48	45567	30.31	3.03686e-09
48	45717	30.41	6.79599e-09
48	45867	30.51	9.75824e-09
48	46017	30.61	1.20131e-08
48	46167	30.71	1.36474e-08
48	46317	30.81	1.47431e-08
48	46467	30.91	1.53779e-08
48	46621	31.01	1.56227e-08
48	46771	31.11	1.55431e-08
47	26	0.21	0
47	176	0.31	0
47	326	0.41	0
47	476	0.51	0
47	626	0.61	0
47	776	0.71	0
47	926	0.81	0
47	1076	0.91	0
47	1230	1.01	0
47	1381	1.11	0
47	1532	1.21	0
47	1683	1.31	0
47	2099	1.41	-0.0167921
47	2249	1.51	-0.0533886
47	2399	1.61	-0.0834104
47	2549	1.71	-0.108039
47	2699	1.81	-0.128243
47	2849	1.91	-0.144817
47	3003	2.01	-0.158413
47	3153	2.11	-0.169567
47	3303	2.21	-0.178718
47	3453	2.31	-0.186224
47	3603	2.41	-0.192382
47	3753	2.51	-0.197433
47	3903	2.61	-0.201577
47	4053	2.71	-0.204977
47	4203	2.81	-0.207765
47	4353	2.91	-0.210053
47	4507	3.01	-0.21193
47	4657	3.11	-0.21347
47	4807	3.21	-0.214733
47	4957	3.31	-0.215769
47	5107	3.41	-0.216619
47	5257	3.51	-0.217316
47	5407	3.61	-0.217888
47	5557	3.71	-0.218357
47	5707	3.81	-0.218742
47	5857	3.91	-0.219058
47	6011	4.01	-0.219317
47	6161	4.11	-0.21953
47	6311	4.21	-0.219704
47	6461	4.31	-0.219847
47	6611	4.41	-0.219964
47	6761	4.51	-0.220061
47	6911	4.61	-0.220139
47	7061	4.71	-0.220204
47	7211	4.81	-0.220257
47	7361	4.91	-0.220301
47	7515	5.01	-0.220337
47	7665	5.11	-0.220366
47	7815	5.21	-0.22039
47	7965	5.31	-0.22041
47	8115	5.41	-0.220426
47	8265	5.51	-0.220439
47	8415	5.61	-0.22045
47	8565	5.71	-0.220459
47	8715	5.81	-0.220467
47	8865	5.91	-0.220473
47	9019	6.01	-0.220477
47	9169	6.11	-0.220482
47	9319	6.21	-0.220485
47	9469	6.31	-0.220488
47	9619	6.41	-0.22049
47	9769	6.51	-0.220492
47	9919	6.61	-0.220493
47	10069	6.71	-0.220494
47	10219	6.81	-0.220495
47	10369	6.91	-0.220496
47	10523	7.01	-0.220497
47	10673	7.11	-0.220497
47	10823	7.21	-0.220498
47	10973	7.31	-0.220498
47	11123	7.41	-0.220499
47	11273	7.51	-0.220499
47	11423	7.61	-0.220499
47	11573	7.71	-0.220499
47	11723	7.81	-0.220499
47	11873	7.91	-0.220499
47	12027	8.01	-0.2205
47	12177	8.11	-0.2205
47	12327	8.21	-0.2205
47	12477	8.31	-0.2205
47	12627	8.41	-0.2205
47	12777	8.51	-0.2205
47	12927	8.61	-0.2205
47	13077	8.71	-0.2205
47	13227	8.81	-0.2205
47	13377	8.91	-0.2205
47	13531	9.01	-0.2205
47	13681	9.11	-0.2205
47	13831	9.21	-0.2205
47	13981	9.31	-0.2205
47	14131	9.41	-0.2205
47	14281	9.51	-0.2205
47	14431	9.61	-0.2205
47	14581	9.71	-0.2205
47	14731	9.81	-0.2205
47	14881	9.91	-0.2205
47	15035	10.01	-0.2205
47	15185	10.11	-0.2205
47	15335	10.21	-0.2205
47	15485	10.31	-0.2205
47	15635	10.41	-0.2205
47	15785	10.51	-0.2205
47	15935	10.61	-0.2205
47	16085	10.71	-0.2205
47	16235	10.81	-0.2205
47	16385	10.91	-0.2205
47	16539	11.01	-0.2205
47	16689	11.11	-0.2205
47	16839	11.21	-0.2205
47	16989	11.31	-0.2205
47	17140	11.41	-0.2205
47	17290	11.51	-0.2205
47	17440	11.61	-0.2205
47	17590	11.71	-0.2205
47	17740	11.81	-0.2205
47	17891	11.91	0.00220121
47	18045	12.01	0.271283
47	18195	12.11	0.492024
47	18345	12.21	0.673109
47	18495	12.31	0.821661
47	18645	12.41	0.943526
47	18795	12.51	1.0435
47	18945	12.61	1.12551
47	19095	12.71	1.19279
47	19245	12.81	1.24778
47	19395	12.91	1.2785
47	19549	13.01	1.28077
47	19699	13.11	1.25966
47	19849	13.21	1.21975
47	19999	13.31	1.16513
47	20149	13.41	1.09943
47	20299	13.51	1.02581
47	20449	13.61	0.947016
47	20599	13.71	0.865394
47	20749	13.81	0.782913
47	20899	13.91	0.701208
47	21053	14.01	0.621605
47	21203	14.11	0.545154
47	21353	14.21	0.472659
47	21503	14.31	0.404711
47	21653	14.41	0.341711
47	21803	14.51	0.2839
47	21953	14.61	0.231383
47	22103	14.71	0.18415
47	22253	14.81	0.1421
47	22403	14.91	0.105056
47	22557	15.01	0.0727827
47	22707	15.11	0.0450018
47	22857	15.21	0.0214047
47	23007	15.31	0.00166289
47	23157	15.41	-0.0145621
47	23307	15.51	-0.027611
47	23457	15.61	-0.0378205
47	23607	15.71	-0.0455175
47	23757	15.81	-0.0510152
47	23907	15.91	-0.0546104
47	24061	16.01	-0.0565801
47	24211	16.11	-0.0571812
47	24361	16.21	-0.0566487
47	24511	16.31	-0.0551958
47	24661	16.41	-0.0530139
47	24811	16.51	-0.0502732
47	24961	16.61	-0.0471232
47	25111	16.71	-0.0436938
47	25261	16.81	-0.0400969
47	25411	16.91	-0.036427
47	25565	17.01	-0.032763
47	25715	17.11	-0.0291697
47	25865	17.21	-0.0256987
47	26015	17.31	-0.0223904
47	26165	17.41	-0.0192748
47	26315	17.51	-0.0163732
47	26465	17.61	-0.0136992
47	26615	17.71	-0.0112599
47	26765	17.81	-0.00905692
47	26915	17.91	-0.00708723
47	27069	18.01	-0.00534428
47	27219	18.11	-0.0038186
47	27369	18.21	-0.00249852
47	27519	18.31	-0.00137078
47	27669	18.41	-0.000421057
47	27819	18.51	0.000365599
47	27969	18.61	0.00100437
47	28119	18.71	0.00151038
47	28269	18.81	0.00189839
47	28419	18.91	0.00218264
47	28573	19.01	0.00237668
47	28723	19.11	0.00249323
47	28873	19.21	0.00254413
47	29023	19.31	0.00254025
47	29173	19.41	0.0024915
47	29323	19.51	0.00240683
47	29473	19.61	0.0022942
47	29623	19.71	0.00216065
47	29773	19.81	0.00201235
47	29923	19.91	0.00185459
47	30077	20.01	0.00169191
47	30227	20.11	0.00152811
47	30377	20.21	0.00136633
47	30527	20.31	0.00120911
47	30677	20.41	0.00105845
47	30827	20.51	0.000915865
47	30977	20.61	0.000782472
47	31127	20.71	0.000659009
47	31277	20.81	0.000545907
47	31427	20.91	0.000443332
47	31581	21.01	0.000351234
47	31731	21.11	0.000269381
47	31881	21.21	0.000197402
47	32031	21.31	0.000134814
47	32181	21.41	8.10511e-05
47	32331	21.51	3.54935e-05
47	32481	21.61	-2.51629e-06
47	32631	21.71	-3.36524e-05
47	32781	21.81	-5.85912e-05
47	32931	21.91	-7.79989e-05
47	33085	22.01	-9.2521e-05
47	33235	22.11	-0.000102775
47	33385	22.21	-0.000109343
47	33535	22.31	-0.00011277
47	33685	22.41	-0.000113559
47	33835	22.51	-0.000112169
47	33985	22.61	-0.000109017
47	34135	22.71	-0.000104476
47	34285	22.81	-9.88773e-05
47	34435	22.91	-9.25106e-05
47	34589	23.01	-8.56285e-05
47	34739	23.11	-7.8447e-05
47	34889	23.21	-7.11486e-05
47	35039	23.31	-6.38853e-05
47	35189	23.41	-5.6781e-05
47	35339	23.51	-4.99346e-05
47	35489	23.61	-4.34225e-05
47	35639	23.71	-3.73016e-05
47	35789	23.81	-3.16112e-05
47	35939	23.91	-2.63761e-05
47	36093	24.01	-2.16085e-05
47	36243	24.11	-1.73098e-05
47	36393	24.21	-1.34729e-05
47	36543	24.31	-1.00836e-05
47	36693	24.41	-7.12243e-06
47	36843	24.51	-4.56546e-06
47	36993	24.61	-2.38596e-06
47	37143	24.71	-5.5522e-07
47	37293	24.81	9.56583e-07
47	37443	24.91	2.17963e-06
47	37597	25.01	3.14386e-06
47	37747	25.11	3.87848e-06
47	37897	25.21	4.41156e-06
47	38047	25.31	4.76974e-06
47	38197	25.41	4.97803e-06
47	38347	25.51	5.05961e-06
47	38497	25.61	5.03579e-06
47	38647	25.71	4.92593e-06
47	38797	25.81	4.74745e-06
47	38947	25.91	4.51589e-06
47	39101	26.01	4.24493e-06
47	39251	26.11	3.94651e-06
47	39401	26.21	3.63092e-06
47	39551	26.31	3.3069e-06
47	39701	26.41	2.98179e-06
47	39851	26.51	2.66159e-06
47	40001	26.61	2.35119e-06
47	40151	26.71	2.05437e-06
47	40301	26.81	1.77404e-06
47	40451	26.91	1.51225e-06
47	40605	27.01	1.27036e-06
47	40755	27.11	1.04915e-06
47	40905	27.21	8.48857e-07
47	41055	27.31	6.69324e-07
47	41205	27.41	5.1004e-07
47	41355	27.51	3.70223e-07
47	41505	27.61	2.48885e-07
47	41655	27.71	1.44881e-07
47	41805	27.81	5.69631e-08
47	41955	27.91	-1.61826e-08
47	42109	28.01	-7.58966e-08
47	42259	28.11	-1.23522e-07
47	42409	28.21	-1.60375e-07
47	42559	28.31	-1.87731e-07
47	42709	28.41	-2.06806e-07
47	42859	28.51	-2.18744e-07
47	43009	28.61	-2.24615e-07
47	43159	28.71	-2.25403e-07
47	43309	28.81	-2.22006e-07
47	43459	28.91	-2.15237e-07
47	43613	29.01	-2.05824e-07
47	43763	29.11	-1.94411e-07
47	43913	29.21	-1.81561e-07
47	44063	29.31	-1.67763e-07
47	44213	29.41	-1.53434e-07
47	44363	29.51	-1.38929e-07
47	44513	29.61	-1.24536e-07
47	44663	29.71	-1.10497e-07
47	44813	29.81	-9.69973e-08
47	44963	29.91	-8.41826e-08
47	45117	30.01	-7.21609e-08
47	45267	30.11	-6.10047e-08
47	45417	30.21	-5.07587e-08
47	45567	30.31	-4.14431e-08
47	45717	30.41	-3.30576e-08
47	45867	30.51	-2.55849e-08
47	46017	30.61	-1.89956e-08
47	46167	30.71	-1.32506e-08
47	46317	30.81	-8.29914e-09
47	46467	30.91	-4.08882e-09
47	46621	31.01	-5.60973e-10
47	46771	31.11	2.3423e-09
51	26	0.21	1.6
51	176	0.31	1.6
51	326	0.41	1.6
51	476	0.51	1.6
51	626	0.61	1.6
51	776	0.71	1.6
51	926	0.81	1.6
51	1076	0.91	1.6
51	1230	1.01	1.6
51	1381	1.11	1.6
51	1532	1.21	1.6
51	1683	1.31	1.6
51	2099	1.41	1.6
51	2249	1.51	1.6
51	2399	1.61	1.6
51	2549	1.71	1.6
51	2699	1.81	1.6
51	2849	1.91	1.6
51	3003	2.01	1.6
51	3153	2.11	1.6
51	3303	2.21	1.6
51	3453	2.31	1.6
51	3603	2.41	1.6
51	3753	2.51	1.6
51	3903	2.61	1.6
51	4053	2.71	1.6
51	4203	2.81	1.6
51	4353	2.91	1.6
51	4507	3.01	1.6
51	4657	3.11	1.6
51	4807	3.21	1.6
51	4957	3.31	1.6
51	5107	3.41	1.6
51	5257	3.51	1.6
51	5407	3.61	1.6
51	5557	3.71	1.6
51	5707	3.81	1.6
51	5857	3.91	1.6
51	6011	4.01	1.6
51	6161	4.11	1.6
51	6311	4.21	1.6
51	6461	4.31	1.6
51	6611	4.41	1.6
51	6761	4.51	1.6
51	6911	4.61	1.6
51	7061	4.71	1.6
51	7211	4.81	1.6
51	7361	4.91	1.6
51	7515	5.01	1.6
51	7665	5.11	1.6
51	7815	5.21	1.6
51	7965	5.31	1.6
51	8115	5.41	1.6
51	8265	5.51	1.6
51	8415	5.61	1.6
51	8565	5.71	1.6
51	8715	5.81	1.6
51	8865	5.91	1.6
51	9019	6.01	1.6
51	9169	6.11	1.6
51	9319	6.21	1.6
51	9469	6.31	1.6
51	9619	6.41	1.6
51	9769	6.51	1.6
51	9919	6.61	1.6
51	10069	6.71	1.6
51	10219	6.81	1.6
51	10369	6.91	1.6
51	10523	7.01	1.6
51	10673	7.11	1.6
51	10823	7.21	1.6
51	10973	7.31	1.6
51	11123	7.41	1.6
51	11273	7.51	1.6
51	11423	7.61	1.6
51	11573	7.71	1.6
51	11723	7.81	1.6
51	11873	7.91	1.6
51	12027	8.01	1.6
51	12177	8.11	1.6
51	12327	8.21	1.6
51	12477	8.31	1.6
51	12627	8.41	1.6
51	12777	8.51	1.6
51	12927	8.61	1.6
51	13077	8.71	1.6
51	13227	8.81	1.6
51	13377	8.91	1.6
51	13531	9.01	1.6
51	13681	9.11	1.6
51	13831	9.21	1.6
51	13981	9.31	1.6
51	14131	9.41	1.6
51	14281	9.51	1.6
51	14431	9.61	1.6
51	14581	9.71	1.6
51	14731	9.81	1.6
51	14881	9.91	1.6
51	15035	10.01	1.6
51	15185	10.11	1.6
51	15335	10.21	1.6
51	15485	10.31	1.6
51	15635	10.41	1.6
51	15785	10.51	1.6
51	15935	10.61	1.6
51	16085	10.71	1.6
51	16235	10.81	1.6
51	16385	10.91	1.6
51	16539	11.01	1.6
51	16689	11.11	1.6
51	16839	11.21	1.6
51	16989	11.31	1.6
51	17140	11.41	1.6
51	17290	11.51	1.6
51	17440	11.61	1.6
51	17590	11.71	1.6
51	17740	11.81	1.6
51	17891	11.91	1.6
51	18045	12.01	1.6
51	18195	12.11	1.6
51	18345	12.21	1.6
51	18495	12.31	1.6
51	18645	12.41	1.6
51	18795	12.51	1.6
51	18945	12.61	1.6
51	19095	12.71	1.6
51	19245	12.81	1.6
51	19395	12.91	1.6
51	19549	13.01	1.6
51	19699	13.11	1.6
51	19849	13.21	1.6
51	19999	13.31	1.6
51	20149	13.41	1.6
51	20299	13.51	1.6
51	20449	13.61	1.6
51	20599	13.71	1.6
51	20749	13.81	1.6
51	20899	13.91	1.6
51	21053	14.01	1.6
51	21203	14.11	1.6
51	21353	14.21	1.6
51	21503	14.31	1.6
51	21653	14.41	1.6
51	21803	14.51	1.6
51	21953	14.61	1.6
51	22103	14.71	1.6
51	22253	14.81	1.6
51	22403	14.91	1.6
51	22557	15.01	1.6
51	22707	15.11	1.6
51	22857	15.21	1.6
51	23007	15.31	1.6
51	23157	15.41	1.6
51	23307	15.51	1.6
51	23457	15.61	1.6
51	23607	15.71	1.6
51	23757	15.81	1.6
51	23907	15.91	1.6
51	24061	16.01	1.6
51	24211	16.11	1.6
51	24361	16.21	1.6
51	24511	16.31	1.6
51	24661	16.41	1.6
51	24811	16.51	1.6
51	24961	16.61	1.6
51	25111	16.71	1.6
51	25261	16.81	1.6
51	25411	16.91	1.6
51	25565	17.01	1.6
51	25715	17.11	1.6
51	25865	17.21	1.6
51	26015	17.31	1.6
51	26165	17.41	1.6
51	26315	17.51	1.6
51	26465	17.61	1.6
51	26615	17.71	1.6
51	26765	17.81	1.6
51	26915	17.91	1.6
51	27069	18.01	1.6
51	27219	18.11	1.6
51	27369	18.21	1.6
51	27519	18.31	1.6
51	27669	18.41	1.6
51	27819	18.51	1.6
51	27969	18.61	1.6
51	28119	18.71	1.6
51	28269	18.81	1.6
51	28419	18.91	1.6
51	28573	19.01	1.6
51	28723	19.11	1.6
51	28873	19.21	1.6
51	29023	19.31	1.6
51	29173	19.41	1.6
51	29323	19.51	1.6
51	29473	19.61	1.6
51	29623	19.71	1.6
51	29773	19.81	1.6
51	29923	19.91	1.6
51	30077	20.01	1.6
51	30227	20.11	1.6
51	30377	20.21	1.6
51	30527	20.31	1.6
51	30677	20.41	1.6
51	30827	20.51	1.6
51	30977	20.61	1.6
51	31127	20.71	1.6
51	31277	20.81	1.6
51	31427	20.91	1.6
51	31581	21.01	1.6
51	31731	21.11	1.6
51	31881	21.21	1.6
51	32031	21.31	1.6
51	32181	21.41	1.6
51	32331	21.51	1.6
51	32481	21.61	1.6
51	32631	21.71	1.6
51	32781	21.81	1.6
51	32931	21.91	1.6
51	33085	22.01	1.6
51	33235	22.11	1.6
51	33385	22.21	1.6
51	33535	22.31	1.6
51	33685	22.41	1.6
51	33835	22.51	1.6
51	33985	22.61	1.6
51	34135	22.71	1.6
51	34285	22.81	1.6
51	34435	22.91	1.6
51	34589	23.01	1.6
51	34739	23.11	1.6
51	34889	23.21	1.6
51	35039	23.31	1.6
51	35189	23.41	1.6
51	35339	23.51	1.6
51	35489	23.61	1.6
51	35639	23.71	1.6
51	35789	23.81	1.6
51	35939	23.91	1.6
51	36093	24.01	1.6
51	36243	24.11	1.6
51	36393	24.21	1.6
51	36543	24.31	1.6
51	36693	24.41	1.6
51	36843	24.51	1.6
51	36993	24.61	1.6
51	37143	24.71	1.6
51	37293	24.81	1.6
51	37443	24.91	1.6
51	37597	25.01	1.6
51	37747	25.11	1.6
51	37897	25.21	1.6
51	38047	25.31	1.6
51	38197	25.41	1.6
51	38347	25.51	1.6
51	38497	25.61	1.6
51	38647	25.71	1.6
51	38797	25.81	1.6
51	38947	25.91	1.6
51	39101	26.01	1.6
51	39251	26.11	1.6
51	39401	26.21	1.6
51	39551	26.31	1.6
51	39701	26.41	1.6
51	39851	26.51	1.6
51	40001	26.61	1.6
51	40151	26.71	1.6
51	40301	26.81	1.6
51	40451	26.91	1.6
51	40605	27.01	1.6
51	40755	27.11	1.6
51	40905	27.21	1.6
51	41055	27.31	1.6
51	41205	27.41	1.6
51	41355	27.51	1.6
51	41505	27.61	1.6
51	41655	27.71	1.6
51	41805	27.81	1.6
51	41955	27.91	1.6
51	42109	28.01	1.6
51	42259	28.11	1.6
51	42409	28.21	1.6
51	42559	28.31	1.6
51	42709	28.41	1.6
51	42859	28.51	1.6
51	43009	28.61	1.6
51	43159	28.71	1.6
51	43309	28.81	1.6
51	43459	28.91	1.6
51	43613	29.01	1.6
51	43763	29.11	1.6
51	43913	29.21	1.6
51	44063	29.31	1.6
51	44213	29.41	1.6
51	44363	29.51	1.6
51	44513	29.61	1.6
51	44663	29.71	1.6
51	44813	29.81	1.6
51	44963	29.91	1.6
51	45117	30.01	1.6
51	45267	30.11	1.6
51	45417	30.21	1.6
51	45567	30.31	1.6
51	45717	30.41	1.6
51	45867	30.51	1.6
51	46017	30.61	1.6
51	46167	30.71	1.6
51	46317	30.81	1.6
51	46467	30.91	1.6
51	46621	31.01	1.6
51	46771	31.11	1.6
50	26	0.21	528.425
50	176	0.31	526.675
50	326	0.41	524.925
50	476	0.51	523.175
50	626	0.61	521.425
50	776	0.71	519.675
50	926	0.81	517.925
50	1076	0.91	516.175
50	1230	1.01	514.425
50	1381	1.11	512.675
50	1532	1.21	510.925
50	1683	1.31	509.175
50	2099	1.41	507.425
50	2249	1.51	505.675
50	2399	1.61	503.926
50	2549	1.71	502.178
50	2699	1.81	500.43
50	2849	1.91	498.684
50	3003	2.01	496.94
50	3153	2.11	495.197
50	3303	2.21	493.455
50	3453	2.31	491.716
50	3603	2.41	489.978
50	3753	2.51	488.242
50	3903	2.61	486.509
50	4053	2.71	484.777
50	4203	2.81	483.047
50	4353	2.91	481.32
50	4507	3.01	479.594
50	4657	3.11	477.871
50	4807	3.21	476.15
50	4957	3.31	474.431
50	5107	3.41	472.714
50	5257	3.51	470.999
50	5407	3.61	469.286
50	5557	3.71	467.576
50	5707	3.81	465.868
50	5857	3.91	464.162
50	6011	4.01	462.458
50	6161	4.11	460.756
50	6311	4.21	459.057
50	6461	4.31	457.359
50	6611	4.41	455.664
50	6761	4.51	453.971
50	6911	4.61	452.281
50	7061	4.71	450.592
50	7211	4.81	448.906
50	7361	4.91	447.222
50	7515	5.01	445.54
50	7665	5.11	443.86
50	7815	5.21	442.183
50	7965	5.31	440.508
50	8115	5.41	438.835
50	8265	5.51	437.164
50	8415	5.61	435.495
50	8565	5.71	433.829
50	8715	5.81	432.165
50	8865	5.91	430.503
50	9019	6.01	428.843
50	9169	6.11	427.185
50	9319	6.21	425.53
50	9469	6.31	423.877
50	9619	6.41	422.226
50	9769	6.51	420.577
50	9919	6.61	418.93
50	10069	6.71	417.286
50	10219	6.81	415.644
50	10369	6.91	414.004
50	10523	7.01	412.366
50	10673	7.11	410.73
50	10823	7.21	409.097
50	10973	7.31	407.466
50	11123	7.41	405.837
50	11273	7.51	404.21
50	11423	7.61	402.586
50	11573	7.71	400.963
50	11723	7.81	399.343
50	11873	7.91	397.725
50	12027	8.01	396.109
50	12177	8.11	394.496
50	12327	8.21	392.885
50	12477	8.31	391.276
50	12627	8.41	389.669
50	12777	8.51	388.064
50	12927	8.61	386.462
50	13077	8.71	384.861
50	13227	8.81	383.263
50	13377	8.91	381.667
50	13531	9.01	380.074
50	13681	9.11	378.482
50	13831	9.21	376.893
50	13981	9.31	375.306
50	14131	9.41	373.721
50	14281	9.51	372.138
50	14431	9.61	370.558
50	14581	9.71	368.98
50	14731	9.81	367.404
50	14881	9.91	365.83
50	15035	10.01	364.258
50	15185	10.11	362.689
50	15335	10.21	361.122
50	15485	10.31	359.557
50	15635	10.41	357.994
50	15785	10.51	356.433
50	15935	10.61	354.875
50	16085	10.71	353.319
50	16235	10.81	351.765
50	16385	10.91	350.213
50	16539	11.01	348.663
50	16689	11.11	347.116
50	16839	11.21	345.571
50	16989	11.31	344.028
50	17140	11.41	342.487
50	17290	11.51	340.949
50	17440	11.61	339.412
50	17590	11.71	337.878
50	17740	11.81	336.346
50	17891	11.91	334.816
50	18045	12.01	333.286
50	18195	12.11	331.753
50	18345	12.21	330.215
50	18495	12.31	328.671
50	18645	12.41	327.118
50	18795	12.51	325.556
50	18945	12.61	323.983
50	19095	12.71	322.399
50	19245	12.81	320.802
50	19395	12.91	319.194
50	19549	13.01	317.573
50	19699	13.11	315.939
50	19849	13.21	314.292
50	19999	13.31	312.633
50	20149	13.41	310.963
50	20299	13.51	309.281
50	20449	13.61	307.59
50	20599	13.71	305.889
50	20749	13.81	304.179
50	20899	13.91	302.461
50	21053	14.01	300.737
50	21203	14.11	299.006
50	21353	14.21	297.27
50	21503	14.31	295.53
50	21653	14.41	293.785
50	21803	14.51	292.037
50	21953	14.61	290.286
50	22103	14.71	288.533
50	22253	14.81	286.778
50	22403	14.91	285.021
50	22557	15.01	283.264
50	22707	15.11	281.506
50	22857	15.21	279.747
50	23007	15.31	277.988
50	23157	15.41	276.229
50	23307	15.51	274.471
50	23457	15.61	272.712
50	23607	15.71	270.954
50	23757	15.81	269.196
50	23907	15.91	267.439
50	24061	16.01	265.683
50	24211	16.11	263.927
50	24361	16.21	262.171
50	24511	16.31	260.417
50	24661	16.41	258.662
50	24811	16.51	256.909
50	24961	16.61	255.155
50	25111	16.71	253.402
50	25261	16.81	251.65
50	25411	16.91	249.898
50	25565	17.01	248.147
50	25715	17.11	246.395
50	25865	17.21	244.644
50	26015	17.31	242.894
50	26165	17.41	241.143
50	26315	17.51	239.393
50	26465	17.61	237.643
50	26615	17.71	235.893
50	26765	17.81	234.143
50	26915	17.91	232.393
50	27069	18.01	230.643
50	27219	18.11	228.894
50	27369	18.21	227.144
50	27519	18.31	225.394
50	27669	18.41	223.645
50	27819	18.51	221.895
50	27969	18.61	220.145
50	28119	18.71	218.396
50	28269	18.81	216.646
50	28419	18.91	214.897
50	28573	19.01	213.147
50	28723	19.11	211.397
50	28873	19.21	209.647
50	29023	19.31	207.898
50	29173	19.41	206.148
50	29323	19.51	204.398
50	29473	19.61	202.648
50	29623	19.71	200.898
50	29773	19.81	199.149
50	29923	19.91	197.399
50	30077	20.01	195.649
50	30227	20.11	193.899
50	30377	20.21	192.149
50	30527	20.31	190.399
50	30677	20.41	188.649
50	30827	20.51	186.899
50	30977	20.61	185.149
50	31127	20.71	183.399
50	31277	20.81	181.649
50	31427	20.91	179.899
50	31581	21.01	178.149
50	31731	21.11	176.399
50	31881	21.21	174.649
50	32031	21.31	172.899
50	32181	21.41	171.149
50	32331	21.51	169.399
50	32481	21.61	167.649
50	32631	21.71	165.899
50	32781	21.81	164.149
50	32931	21.91	162.399
50	33085	22.01	160.649
50	33235	22.11	158.899
50	33385	22.21	157.149
50	33535	22.31	155.399
50	33685	22.41	153.649
50	33835	22.51	151.899
50	33985	22.61	150.149
50	34135	22.71	148.399
50	34285	22.81	146.649
50	34435	22.91	144.899
50	34589	23.01	143.149
50	34739	23.11	141.399
50	34889	23.21	139.649
50	35039	23.31	137.899
50	35189	23.41	136.149
50	35339	23.51	134.399
50	35489	23.61	132.649
50	35639	23.71	130.899
50	35789	23.81	129.149
50	35939	23.91	127.399
50	36093	24.01	125.649
50	36243	24.11	123.899
50	36393	24.21	122.149
50	36543	24.31	120.399
50	36693	24.41	118.649
50	36843	24.51	116.899
50	36993	24.61	115.149
50	37143	24.71	113.399
50	37293	24.81	111.649
50	37443	24.91	109.899
50	37597	25.01	108.149
50	37747	25.11	106.399
50	37897	25.21	104.649
50	38047	25.31	102.899
50	38197	25.41	101.149
50	38347	25.51	99.3988
50	38497	25.61	97.6488
50	38647	25.71	95.8988
50	38797	25.81	94.1488
50	38947	25.91	92.3988
50	39101	26.01	90.6488
50	39251	26.11	88.8988
50	39401	26.21	87.1488
50	39551	26.31	85.3988
50	39701	26.41	83.6488
50	39851	26.51	81.8988
50	40001	26.61	80.1488
50	40151	26.71	78.3988
50	40301	26.81	76.6488
50	40451	26.91	74.8988
50	40605	27.01	73.1488
50	40755	27.11	71.3988
50	40905	27.21	69.6488
50	41055	27.31	67.8988
50	41205	27.41	66.1488
50	41355	27.51	64.3988
50	41505	27.61	62.6488
50	41655	27.71	60.8988
50	41805	27.81	59.1488
50	41955	27.91	57.3988
50	42109	28.01	55.6488
50	42259	28.11	53.8988
50	42409	28.21	52.1488
50	42559	28.31	50.3988
50	42709	28.41	48.6488
50	42859	28.51	46.8988
50	43009	28.61	45.1488
50	43159	28.71	43.3988
50	43309	28.81	41.6488
50	43459	28.91	39.8988
50	43613	29.01	38.1488
50	43763	29.11	36.3988
50	43913	29.21	34.6488
50	44063	29.31	32.8988
50	44213	29.41	31.1488
50	44363	29.51	29.3988
50	44513	29.61	27.6488
50	44663	29.71	25.8988
50	44813	29.81	24.1488
50	44963	29.91	22.3988
50	45117	30.01	20.6488
50	45267	30.11	18.8988
50	45417	30.21	17.1488
50	45567	30.31	15.3988
50	45717	30.41	13.6488
50	45867	30.51	11.8988
50	46017	30.61	10.1488
50	46167	30.71	8.39882
50	46317	30.81	6.64882
50	46467	30.91	4.89882
50	46621	31.01	3.14882
50	46771	31.11	1.39882
49	26	0.21	17.5
49	176	0.31	17.5
49	326	0.41	17.5
49	476	0.51	17.5
49	626	0.61	17.5
49	776	0.71	17.5
49	926	0.81	17.5
49	1076	0.91	17.5
49	1230	1.01	17.5
49	1381	1.11	17.5
49	1532	1.21	17.5
49	1683	1.31	17.5
49	2099	1.41	17.4996
49	2249	1.51	17.4958
49	2399	1.61	17.4888
49	2549	1.71	17.479
49	2699	1.81	17.4671
49	2849	1.91	17.4533
49	3003	2.01	17.4381
49	3153	2.11	17.4216
49	3303	2.21	17.4041
49	3453	2.31	17.3858
49	3603	2.41	17.3669
49	3753	2.51	17.3473
49	3903	2.61	17.3274
49	4053	2.71	17.307
49	4203	2.81	17.2864
49	4353	2.91	17.2655
49	4507	3.01	17.2443
49	4657	3.11	17.2231
49	4807	3.21	17.2016
49	4957	3.31	17.1801
49	5107	3.41	17.1585
49	5257	3.51	17.1368
49	5407	3.61	17.115
49	5557	3.71	17.0932
49	5707	3.81	17.0714
49	5857	3.91	17.0495
49	6011	4.01	17.0275
49	6161	4.11	17.0056
49	6311	4.21	16.9836
49	6461	4.31	16.9617
49	6611	4.41	16.9397
49	6761	4.51	16.9177
49	6911	4.61	16.8956
49	7061	4.71	16.8736
49	7211	4.81	16.8516
49	7361	4.91	16.8296
49	7515	5.01	16.8075
49	7665	5.11	16.7855
49	7815	5.21	16.7635
49	7965	5.31	16.7414
49	8115	5.41	16.7194
49	8265	5.51	16.6973
49	8415	5.61	16.6753
49	8565	5.71	16.6533
49	8715	5.81	16.6312
49	8865	5.91	16.6092
49	9019	6.01	16.5871
49	9169	6.11	16.5651
49	9319	6.21	16.543
49	9469	6.31	16.521
49	9619	6.41	16.4989
49	9769	6.51	16.4769
49	9919	6.61	16.4548
49	10069	6.71	16.4328
49	10219	6.81	16.4107
49	10369	6.91	16.3887
49	10523	7.01	16.3666
49	10673	7.11	16.3446
49	10823	7.21	16.3225
49	10973	7.31	16.3005
49	11123	7.41	16.2784
49	11273	7.51	16.2564
49	11423	7.61	16.2343
49	11573	7.71	16.2123
49	11723	7.81	16.1902
49	11873	7.91	16.1682
49	12027	8.01	16.1461
49	12177	8.11	16.1241
49	12327	8.21	16.102
49	12477	8.31	16.08
49	12627	8.41	16.0579
49	12777	8.51	16.0359
49	12927	8.61	16.0138
49	13077	8.71	15.9918
49	13227	8.81	15.9697
49	13377	8.91	15.9477
49	13531	9.01	15.9256
49	13681	9.11	15.9036
49	13831	9.21	15.8815
49	13981	9.31	15.8595
49	14131	9.41	15.8374
49	14281	9.51	15.8154
49	14431	9.61	15.7933
49	14581	9.71	15.7713
49	14731	9.81	15.7492
49	14881	9.91	15.7272
49	15035	10.01	15.7051
49	15185	10.11	15.6831
49	15335	10.21	15.661
49	15485	10.31	15.639
49	15635	10.41	15.6169
49	15785	10.51	15.5949
49	15935	10.61	15.5728
49	16085	10.71	15.5508
49	16235	10.81	15.5287
49	16385	10.91	15.5067
49	16539	11.01	15.4846
49	16689	11.11	15.4626
49	16839	11.21	15.4405
49	16989	11.31	15.4185
49	17140	11.41	15.3964
49	17290	11.51	15.3744
49	17440	11.61	15.3523
49	17590	11.71	15.3303
49	17740	11.81	15.3082
49	17891	11.91	15.2953
49	18045	12.01	15.3107
49	18195	12.11	15.3504
49	18345	12.21	15.4098
49	18495	12.31	15.4855
49	18645	12.41	15.5746
49	18795	12.51	15.6746
49	18945	12.61	15.7836
49	19095	12.71	15.9
49	19245	12.81	16.0224
49	19395	12.91	16.1491
49	19549	13.01	16.2773
49	19699	13.11	16.4044
49	19849	13.21	16.5283
49	19999	13.31	16.6474
49	20149	13.41	16.7603
49	20299	13.51	16.8663
49	20449	13.61	16.9646
49	20599	13.71	17.0548
49	20749	13.81	17.1368
49	20899	13.91	17.2106
49	21053	14.01	17.2763
49	21203	14.11	17.3342
49	21353	14.21	17.3847
49	21503	14.31	17.4282
49	21653	14.41	17.4652
49	21803	14.51	17.4961
49	21953	14.61	17.5216
49	22103	14.71	17.5421
49	22253	14.81	17.5581
49	22403	14.91	17.5703
49	22557	15.01	17.579
49	22707	15.11	17.5847
49	22857	15.21	17.5878
49	23007	15.31	17.5889
49	23157	15.41	17.5881
49	23307	15.51	17.5859
49	23457	15.61	17.5826
49	23607	15.71	17.5783
49	23757	15.81	17.5735
49	23907	15.91	17.5682
49	24061	16.01	17.5626
49	24211	16.11	17.5569
49	24361	16.21	17.5512
49	24511	16.31	17.5456
49	24661	16.41	17.5402
49	24811	16.51	17.535
49	24961	16.61	17.5302
49	25111	16.71	17.5256
49	25261	16.81	17.5215
49	25411	16.91	17.5177
49	25565	17.01	17.5142
49	25715	17.11	17.5111
49	25865	17.21	17.5084
49	26015	17.31	17.506
49	26165	17.41	17.504
49	26315	17.51	17.5022
49	26465	17.61	17.5007
49	26615	17.71	17.4995
49	26765	17.81	17.4985
49	26915	17.91	17.4977
49	27069	18.01	17.4971
49	27219	18.11	17.4966
49	27369	18.21	17.4963
49	27519	18.31	17.4961
49	27669	18.41	17.496
49	27819	18.51	17.4961
49	27969	18.61	17.4961
49	28119	18.71	17.4963
49	28269	18.81	17.4964
49	28419	18.91	17.4966
49	28573	19.01	17.4969
49	28723	19.11	17.4971
49	28873	19.21	17.4974
49	29023	19.31	17.4976
49	29173	19.41	17.4979
49	29323	19.51	17.4981
49	29473	19.61	17.4983
49	29623	19.71	17.4986
49	29773	19.81	17.4988
49	29923	19.91	17.499
49	30077	20.01	17.4991
49	30227	20.11	17.4993
49	30377	20.21	17.4994
49	30527	20.31	17.4996
49	30677	20.41	17.4997
49	30827	20.51	17.4998
49	30977	20.61	17.4999
49	31127	20.71	17.4999
49	31277	20.81	17.5
49	31427	20.91	17.5001
49	31581	21.01	17.5001
49	31731	21.11	17.5001
49	31881	21.21	17.5001
49	32031	21.31	17.5002
49	32181	21.41	17.5002
49	32331	21.51	17.5002
49	32481	21.61	17.5002
49	32631	21.71	17.5002
49	32781	21.81	17.5002
49	32931	21.91	17.5002
49	33085	22.01	17.5002
49	33235	22.11	17.5001
49	33385	22.21	17.5001
49	33535	22.31	17.5001
49	33685	22.41	17.5001
49	33835	22.51	17.5001
49	33985	22.61	17.5001
49	34135	22.71	17.5001
49	34285	22.81	17.5001
49	34435	22.91	17.5001
49	34589	23.01	17.5
49	34739	23.11	17.5
49	34889	23.21	17.5
49	35039	23.31	17.5
49	35189	23.41	17.5
49	35339	23.51	17.5
49	35489	23.61	17.5
49	35639	23.71	17.5
49	35789	23.81	17.5
49	35939	23.91	17.5
49	36093	24.01	17.5
49	36243	24.11	17.5
49	36393	24.21	17.5
49	36543	24.31	17.5
49	36693	24.41	17.5
49	36843	24.51	17.5
49	36993	24.61	17.5
49	37143	24.71	17.5
49	37293	24.81	17.5
49	37443	24.91	17.5
49	37597	25.01	17.5
49	37747	25.11	17.5
49	37897	25.21	17.5
49	38047	25.31	17.5
49	38197	25.41	17.5
49	38347	25.51	17.5
49	38497	25.61	17.5
49	38647	25.71	17.5
49	38797	25.81	17.5
49	38947	25.91	17.5
49	39101	26.01	17.5
49	39251	26.11	17.5
49	39401	26.21	17.5
49	39551	26.31	17.5
49	39701	26.41	17.5
49	39851	26.51	17.5
49	40001	26.61	17.5
49	40151	26.71	17.5
49	40301	26.81	17.5
49	40451	26.91	17.5
49	40605	27.01	17.5
49	40755	27.11	17.5
49	40905	27.21	17.5
49	41055	27.31	17.5
49	41205	27.41	17.5
49	41355	27.51	17.5
49	41505	27.61	17.5
49	41655	27.71	17.5
49	41805	27.81	17.5
49	41955	27.91	17.5
49	42109	28.01	17.5
49	42259	28.11	17.5
49	42409	28.21	17.5
49	42559	28.31	17.5
49	42709	28.41	17.5
49	42859	28.51	17.5
49	43009	28.61	17.5
49	43159	28.71	17.5
49	43309	28.81	17.5
49	43459	28.91	17.5
49	43613	29.01	17.5
49	43763	29.11	17.5
49	43913	29.21	17.5
49	44063	29.31	17.5
49	44213	29.41	17.5
49	44363	29.51	17.5
49	44513	29.61	17.5
49	44663	29.71	17.5
49	44813	29.81	17.5
49	44963	29.91	17.5
49	45117	30.01	17.5
49	45267	30.11	17.5
49	45417	30.21	17.5
49	45567	30.31	17.5
49	45717	30.41	17.5
49	45867	30.51	17.5
49	46017	30.61	17.5
49	46167	30.71	17.5
49	46317	30.81	17.5
49	46467	30.91	17.5
49	46621	31.01	17.5
49	46771	31.11	17.5
45	26	0.21	0
45	176	0.31	0
45	326	0.41	0
45	476	0.51	0
45	626	0.61	0
45	776	0.71	0
45	926	0.81	0
45	1076	0.91	0
45	1230	1.01	0
45	1381	1.11	0
45	1532	1.21	0
45	1683	1.31	0
45	2099	1.41	5.0222
45	2249	1.51	4.65539
45	2399	1.61	4.38538
45	2549	1.71	4.19479
45	2699	1.81	4.06935
45	2849	1.91	3.99735
45	3003	2.01	3.9692
45	3153	2.11	3.97702
45	3303	2.21	4.01433
45	3453	2.31	4.07586
45	3603	2.41	4.15724
45	3753	2.51	4.25491
45	3903	2.61	4.36594
45	4053	2.71	4.48793
45	4203	2.81	4.61892
45	4353	2.91	4.75728
45	4507	3.01	4.9017
45	4657	3.11	5.05108
45	4807	3.21	5.20453
45	4957	3.31	5.36133
45	5107	3.41	5.52086
45	5257	3.51	5.68264
45	5407	3.61	5.84627
45	5557	3.71	6.01141
45	5707	3.81	6.17779
45	5857	3.91	6.34519
45	6011	4.01	6.51343
45	6161	4.11	6.68235
45	6311	4.21	6.85183
45	6461	4.31	7.02178
45	6611	4.41	7.1921
45	6761	4.51	7.36273
45	6911	4.61	7.53362
45	7061	4.71	7.70472
45	7211	4.81	7.87598
45	7361	4.91	8.04739
45	7515	5.01	8.21891
45	7665	5.11	8.39053
45	7815	5.21	8.56223
45	7965	5.31	8.73399
45	8115	5.41	8.9058
45	8265	5.51	9.07765
45	8415	5.61	9.24954
45	8565	5.71	9.42146
45	8715	5.81	9.5934
45	8865	5.91	9.76524
45	9019	6.01	9.93531
45	9169	6.11	10.1013
45	9319	6.21	10.2614
45	9469	6.31	10.4141
45	9619	6.41	10.5585
45	9769	6.51	10.6938
45	9919	6.61	10.8197
45	10069	6.71	10.9359
45	10219	6.81	11.0426
45	10369	6.91	11.1398
45	10523	7.01	11.2281
45	10673	7.11	11.3077
45	10823	7.21	11.3792
45	10973	7.31	11.4432
45	11123	7.41	11.5003
45	11273	7.51	11.5511
45	11423	7.61	11.5962
45	11573	7.71	11.6362
45	11723	7.81	11.6717
45	11873	7.91	11.7032
45	12027	8.01	11.7314
45	12177	8.11	11.7567
45	12327	8.21	11.7796
45	12477	8.31	11.8005
45	12627	8.41	11.8197
45	12777	8.51	11.8376
45	12927	8.61	11.8546
45	13077	8.71	11.8709
45	13227	8.81	11.8866
45	13377	8.91	11.9021
45	13531	9.01	11.9175
45	13681	9.11	11.9329
45	13831	9.21	11.9485
45	13981	9.31	11.9642
45	14131	9.41	11.9803
45	14281	9.51	11.9968
45	14431	9.61	12.0136
45	14581	9.71	12.0308
45	14731	9.81	12.0485
45	14881	9.91	12.0666
45	15035	10.01	12.0851
45	15185	10.11	12.1041
45	15335	10.21	12.1234
45	15485	10.31	12.1431
45	15635	10.41	12.1631
45	15785	10.51	12.1835
45	15935	10.61	12.2041
45	16085	10.71	12.2251
45	16235	10.81	12.2462
45	16385	10.91	12.2676
45	16539	11.01	12.2892
45	16689	11.11	12.3109
45	16839	11.21	12.3327
45	16989	11.31	12.3547
45	17140	11.41	0
45	17290	11.51	0
45	17440	11.61	0
45	17590	11.71	0
45	17740	11.81	0
45	17891	11.91	0
45	18045	12.01	0
45	18195	12.11	0
45	18345	12.21	0
45	18495	12.31	0
45	18645	12.41	0
45	18795	12.51	0
45	18945	12.61	0
45	19095	12.71	0
45	19245	12.81	0
45	19395	12.91	0
45	19549	13.01	0
45	19699	13.11	0
45	19849	13.21	0
45	19999	13.31	0
45	20149	13.41	0
45	20299	13.51	0
45	20449	13.61	0
45	20599	13.71	0
45	20749	13.81	0
45	20899	13.91	0
45	21053	14.01	0
45	21203	14.11	0
45	21353	14.21	0
45	21503	14.31	0
45	21653	14.41	0
45	21803	14.51	0
45	21953	14.61	0
45	22103	14.71	0
45	22253	14.81	0
45	22403	14.91	0
45	22557	15.01	0
45	22707	15.11	0
45	22857	15.21	0
45	23007	15.31	0
45	23157	15.41	0
45	23307	15.51	0
45	23457	15.61	0
45	23607	15.71	0
45	23757	15.81	0
45	23907	15.91	0
45	24061	16.01	0
45	24211	16.11	0
45	24361	16.21	0
45	24511	16.31	0
45	24661	16.41	0
45	24811	16.51	0
45	24961	16.61	0
45	25111	16.71	0
45	25261	16.81	0
45	25411	16.91	0
45	25565	17.01	0
45	25715	17.11	0
45	25865	17.21	0
45	26015	17.31	0
45	26165	17.41	0
45	26315	17.51	0
45	26465	17.61	0
45	26615	17.71	0
45	26765	17.81	0
45	26915	17.91	0
45	27069	18.01	0
45	27219	18.11	0
45	27369	18.21	0
45	27519	18.31	0
45	27669	18.41	0
45	27819	18.51	0
45	27969	18.61	0
45	28119	18.71	0
45	28269	18.81	0
45	28419	18.91	0
45	28573	19.01	0
45	28723	19.11	0
45	28873	19.21	0
45	29023	19.31	0
45	29173	19.41	0
45	29323	19.51	0
45	29473	19.61	0
45	29623	19.71	0
45	29773	19.81	0
45	29923	19.91	0
45	30077	20.01	0
45	30227	20.11	0
45	30377	20.21	0
45	30527	20.31	0
45	30677	20.41	0
45	30827	20.51	0
45	30977	20.61	0
45	31127	20.71	0
45	31277	20.81	0
45	31427	20.91	0
45	31581	21.01	0
45	31731	21.11	0
45	31881	21.21	0
45	32031	21.31	0
45	32181	21.41	0
45	32331	21.51	0
45	32481	21.61	0
45	32631	21.71	0
45	32781	21.81	0
45	32931	21.91	0
45	33085	22.01	0
45	33235	22.11	0
45	33385	22.21	0
45	33535	22.31	0
45	33685	22.41	0
45	33835	22.51	0
45	33985	22.61	0
45	34135	22.71	0
45	34285	22.81	0
45	34435	22.91	0
45	34589	23.01	0
45	34739	23.11	0
45	34889	23.21	0
45	35039	23.31	0
45	35189	23.41	0
45	35339	23.51	0
45	35489	23.61	0
45	35639	23.71	0
45	35789	23.81	0
45	35939	23.91	0
45	36093	24.01	0
45	36243	24.11	0
45	36393	24.21	0
45	36543	24.31	0
45	36693	24.41	0
45	36843	24.51	0
45	36993	24.61	0
45	37143	24.71	0
45	37293	24.81	0
45	37443	24.91	0
45	37597	25.01	0
45	37747	25.11	0
45	37897	25.21	0
45	38047	25.31	0
45	38197	25.41	0
45	38347	25.51	0
45	38497	25.61	0
45	38647	25.71	0
45	38797	25.81	0
45	38947	25.91	0
45	39101	26.01	0
45	39251	26.11	0
45	39401	26.21	0
45	39551	26.31	0
45	39701	26.41	0
45	39851	26.51	0
45	40001	26.61	0
45	40151	26.71	0
45	40301	26.81	0
45	40451	26.91	0
45	40605	27.01	0
45	40755	27.11	0
45	40905	27.21	0
45	41055	27.31	0
45	41205	27.41	0
45	41355	27.51	0
45	41505	27.61	0
45	41655	27.71	0
45	41805	27.81	0
45	41955	27.91	0
45	42109	28.01	0
45	42259	28.11	0
45	42409	28.21	0
45	42559	28.31	0
45	42709	28.41	0
45	42859	28.51	0
45	43009	28.61	0
45	43159	28.71	0
45	43309	28.81	0
45	43459	28.91	0
45	43613	29.01	0
45	43763	29.11	0
45	43913	29.21	0
45	44063	29.31	0
45	44213	29.41	0
45	44363	29.51	0
45	44513	29.61	0
45	44663	29.71	0
45	44813	29.81	0
45	44963	29.91	0
45	45117	30.01	0
45	45267	30.11	0
45	45417	30.21	0
45	45567	30.31	0
45	45717	30.41	0
45	45867	30.51	0
45	46017	30.61	0
45	46167	30.71	0
45	46317	30.81	0
45	46467	30.91	0
45	46621	31.01	0
45	46771	31.11	0
44	26	0.21	-1
44	176	0.31	-1
44	326	0.41	-1
44	476	0.51	-1
44	626	0.61	-1
44	776	0.71	-1
44	926	0.81	-1
44	1076	0.91	-1
44	1230	1.01	-1
44	1381	1.11	-1
44	1532	1.21	-1
44	1683	1.31	-1
44	2099	1.41	428.437
44	2249	1.51	424.454
44	2399	1.61	420.505
44	2549	1.71	416.579
44	2699	1.81	412.672
44	2849	1.91	408.777
44	3003	2.01	404.89
44	3153	2.11	401.007
44	3303	2.21	397.125
44	3453	2.31	393.241
44	3603	2.41	389.355
44	3753	2.51	385.463
44	3903	2.61	381.564
44	4053	2.71	377.658
44	4203	2.81	373.744
44	4353	2.91	369.82
44	4507	3.01	365.886
44	4657	3.11	361.941
44	4807	3.21	357.986
44	4957	3.31	354.02
44	5107	3.41	350.042
44	5257	3.51	346.052
44	5407	3.61	342.051
44	5557	3.71	338.037
44	5707	3.81	334.011
44	5857	3.91	329.973
44	6011	4.01	325.922
44	6161	4.11	321.859
44	6311	4.21	317.783
44	6461	4.31	313.695
44	6611	4.41	309.594
44	6761	4.51	305.481
44	6911	4.61	301.355
44	7061	4.71	297.216
44	7211	4.81	293.064
44	7361	4.91	288.9
44	7515	5.01	284.723
44	7665	5.11	280.533
44	7815	5.21	276.331
44	7965	5.31	272.115
44	8115	5.41	267.887
44	8265	5.51	263.647
44	8415	5.61	259.393
44	8565	5.71	255.126
44	8715	5.81	250.847
44	8865	5.91	246.555
44	9019	6.01	242.251
44	9169	6.11	237.934
44	9319	6.21	233.605
44	9469	6.31	229.264
44	9619	6.41	224.914
44	9769	6.51	220.553
44	9919	6.61	216.184
44	10069	6.71	211.808
44	10219	6.81	207.424
44	10369	6.91	203.035
44	10523	7.01	198.641
44	10673	7.11	194.243
44	10823	7.21	189.842
44	10973	7.31	185.439
44	11123	7.41	181.034
44	11273	7.51	176.627
44	11423	7.61	172.221
44	11573	7.71	167.815
44	11723	7.81	163.409
44	11873	7.91	159.004
44	12027	8.01	154.601
44	12177	8.11	150.2
44	12327	8.21	145.8
44	12477	8.31	141.403
44	12627	8.41	137.008
44	12777	8.51	132.616
44	12927	8.61	128.226
44	13077	8.71	123.84
44	13227	8.81	119.456
44	13377	8.91	115.074
44	13531	9.01	110.696
44	13681	9.11	106.321
44	13831	9.21	101.948
44	13981	9.31	97.5783
44	14131	9.41	93.2114
44	14281	9.51	88.8473
44	14431	9.61	84.4859
44	14581	9.71	80.1272
44	14731	9.81	75.7712
44	14881	9.91	71.4178
44	15035	10.01	67.067
44	15185	10.11	62.7187
44	15335	10.21	58.3729
44	15485	10.31	54.0296
44	15635	10.41	49.6887
44	15785	10.51	45.3502
44	15935	10.61	41.0141
44	16085	10.71	36.6802
44	16235	10.81	32.3487
44	16385	10.91	28.0195
44	16539	11.01	23.6925
44	16689	11.11	19.3678
44	16839	11.21	15.0453
44	16989	11.31	10.725
44	17140	11.41	-1
44	17290	11.51	-1
44	17440	11.61	-1
44	17590	11.71	-1
44	17740	11.81	-1
44	17891	11.91	-1
44	18045	12.01	-1
44	18195	12.11	-1
44	18345	12.21	-1
44	18495	12.31	-1
44	18645	12.41	-1
44	18795	12.51	-1
44	18945	12.61	-1
44	19095	12.71	-1
44	19245	12.81	-1
44	19395	12.91	-1
44	19549	13.01	-1
44	19699	13.11	-1
44	19849	13.21	-1
44	19999	13.31	-1
44	20149	13.41	-1
44	20299	13.51	-1
44	20449	13.61	-1
44	20599	13.71	-1
44	20749	13.81	-1
44	20899	13.91	-1
44	21053	14.01	-1
44	21203	14.11	-1
44	21353	14.21	-1
44	21503	14.31	-1
44	21653	14.41	-1
44	21803	14.51	-1
44	21953	14.61	-1
44	22103	14.71	-1
44	22253	14.81	-1
44	22403	14.91	-1
44	22557	15.01	-1
44	22707	15.11	-1
44	22857	15.21	-1
44	23007	15.31	-1
44	23157	15.41	-1
44	23307	15.51	-1
44	23457	15.61	-1
44	23607	15.71	-1
44	23757	15.81	-1
44	23907	15.91	-1
44	24061	16.01	-1
44	24211	16.11	-1
44	24361	16.21	-1
44	24511	16.31	-1
44	24661	16.41	-1
44	24811	16.51	-1
44	24961	16.61	-1
44	25111	16.71	-1
44	25261	16.81	-1
44	25411	16.91	-1
44	25565	17.01	-1
44	25715	17.11	-1
44	25865	17.21	-1
44	26015	17.31	-1
44	26165	17.41	-1
44	26315	17.51	-1
44	26465	17.61	-1
44	26615	17.71	-1
44	26765	17.81	-1
44	26915	17.91	-1
44	27069	18.01	-1
44	27219	18.11	-1
44	27369	18.21	-1
44	27519	18.31	-1
44	27669	18.41	-1
44	27819	18.51	-1
44	27969	18.61	-1
44	28119	18.71	-1
44	28269	18.81	-1
44	28419	18.91	-1
44	28573	19.01	-1
44	28723	19.11	-1
44	28873	19.21	-1
44	29023	19.31	-1
44	29173	19.41	-1
44	29323	19.51	-1
44	29473	19.61	-1
44	29623	19.71	-1
44	29773	19.81	-1
44	29923	19.91	-1
44	30077	20.01	-1
44	30227	20.11	-1
44	30377	20.21	-1
44	30527	20.31	-1
44	30677	20.41	-1
44	30827	20.51	-1
44	30977	20.61	-1
44	31127	20.71	-1
44	31277	20.81	-1
44	31427	20.91	-1
44	31581	21.01	-1
44	31731	21.11	-1
44	31881	21.21	-1
44	32031	21.31	-1
44	32181	21.41	-1
44	32331	21.51	-1
44	32481	21.61	-1
44	32631	21.71	-1
44	32781	21.81	-1
44	32931	21.91	-1
44	33085	22.01	-1
44	33235	22.11	-1
44	33385	22.21	-1
44	33535	22.31	-1
44	33685	22.41	-1
44	33835	22.51	-1
44	33985	22.61	-1
44	34135	22.71	-1
44	34285	22.81	-1
44	34435	22.91	-1
44	34589	23.01	-1
44	34739	23.11	-1
44	34889	23.21	-1
44	35039	23.31	-1
44	35189	23.41	-1
44	35339	23.51	-1
44	35489	23.61	-1
44	35639	23.71	-1
44	35789	23.81	-1
44	35939	23.91	-1
44	36093	24.01	-1
44	36243	24.11	-1
44	36393	24.21	-1
44	36543	24.31	-1
44	36693	24.41	-1
44	36843	24.51	-1
44	36993	24.61	-1
44	37143	24.71	-1
44	37293	24.81	-1
44	37443	24.91	-1
44	37597	25.01	-1
44	37747	25.11	-1
44	37897	25.21	-1
44	38047	25.31	-1
44	38197	25.41	-1
44	38347	25.51	-1
44	38497	25.61	-1
44	38647	25.71	-1
44	38797	25.81	-1
44	38947	25.91	-1
44	39101	26.01	-1
44	39251	26.11	-1
44	39401	26.21	-1
44	39551	26.31	-1
44	39701	26.41	-1
44	39851	26.51	-1
44	40001	26.61	-1
44	40151	26.71	-1
44	40301	26.81	-1
44	40451	26.91	-1
44	40605	27.01	-1
44	40755	27.11	-1
44	40905	27.21	-1
44	41055	27.31	-1
44	41205	27.41	-1
44	41355	27.51	-1
44	41505	27.61	-1
44	41655	27.71	-1
44	41805	27.81	-1
44	41955	27.91	-1
44	42109	28.01	-1
44	42259	28.11	-1
44	42409	28.21	-1
44	42559	28.31	-1
44	42709	28.41	-1
44	42859	28.51	-1
44	43009	28.61	-1
44	43159	28.71	-1
44	43309	28.81	-1
44	43459	28.91	-1
44	43613	29.01	-1
44	43763	29.11	-1
44	43913	29.21	-1
44	44063	29.31	-1
44	44213	29.41	-1
44	44363	29.51	-1
44	44513	29.61	-1
44	44663	29.71	-1
44	44813	29.81	-1
44	44963	29.91	-1
44	45117	30.01	-1
44	45267	30.11	-1
44	45417	30.21	-1
44	45567	30.31	-1
44	45717	30.41	-1
44	45867	30.51	-1
44	46017	30.61	-1
44	46167	30.71	-1
44	46317	30.81	-1
44	46467	30.91	-1
44	46621	31.01	-1
44	46771	31.11	-1
46	26	0.21	3
46	176	0.31	3
46	326	0.41	3
46	476	0.51	3
46	626	0.61	3
46	776	0.71	3
46	926	0.81	3
46	1076	0.91	3
46	1230	1.01	3
46	1381	1.11	3
46	1532	1.21	3
46	1683	1.31	3
46	2099	1.41	3
46	2249	1.51	3
46	2399	1.61	3
46	2549	1.71	3
46	2699	1.81	3
46	2849	1.91	3
46	3003	2.01	3
46	3153	2.11	3
46	3303	2.21	3
46	3453	2.31	3
46	3603	2.41	3
46	3753	2.51	3
46	3903	2.61	3
46	4053	2.71	3
46	4203	2.81	3
46	4353	2.91	3
46	4507	3.01	3
46	4657	3.11	3
46	4807	3.21	3
46	4957	3.31	3
46	5107	3.41	3
46	5257	3.51	3
46	5407	3.61	3
46	5557	3.71	3
46	5707	3.81	3
46	5857	3.91	3
46	6011	4.01	3
46	6161	4.11	3
46	6311	4.21	3
46	6461	4.31	3
46	6611	4.41	3
46	6761	4.51	3
46	6911	4.61	3
46	7061	4.71	3
46	7211	4.81	3
46	7361	4.91	3
46	7515	5.01	3
46	7665	5.11	3
46	7815	5.21	3
46	7965	5.31	3
46	8115	5.41	3
46	8265	5.51	3
46	8415	5.61	3
46	8565	5.71	3
46	8715	5.81	3
46	8865	5.91	3
46	9019	6.01	3
46	9169	6.11	3
46	9319	6.21	3
46	9469	6.31	3
46	9619	6.41	3
46	9769	6.51	3
46	9919	6.61	3
46	10069	6.71	3
46	10219	6.81	3
46	10369	6.91	3
46	10523	7.01	3
46	10673	7.11	3
46	10823	7.21	3
46	10973	7.31	3
46	11123	7.41	3
46	11273	7.51	3
46	11423	7.61	3
46	11573	7.71	3
46	11723	7.81	3
46	11873	7.91	3
46	12027	8.01	3
46	12177	8.11	3
46	12327	8.21	3
46	12477	8.31	3
46	12627	8.41	3
46	12777	8.51	3
46	12927	8.61	3
46	13077	8.71	3
46	13227	8.81	3
46	13377	8.91	3
46	13531	9.01	3
46	13681	9.11	3
46	13831	9.21	3
46	13981	9.31	3
46	14131	9.41	3
46	14281	9.51	3
46	14431	9.61	3
46	14581	9.71	3
46	14731	9.81	3
46	14881	9.91	3
46	15035	10.01	3
46	15185	10.11	3
46	15335	10.21	3
46	15485	10.31	3
46	15635	10.41	3
46	15785	10.51	3
46	15935	10.61	3
46	16085	10.71	3
46	16235	10.81	3
46	16385	10.91	3
46	16539	11.01	3
46	16689	11.11	3
46	16839	11.21	3
46	16989	11.31	3
46	17140	11.41	3
46	17290	11.51	3
46	17440	11.61	3
46	17590	11.71	3
46	17740	11.81	3
46	17891	11.91	3
46	18045	12.01	3
46	18195	12.11	3
46	18345	12.21	3
46	18495	12.31	3
46	18645	12.41	3
46	18795	12.51	3
46	18945	12.61	3
46	19095	12.71	3
46	19245	12.81	3
46	19395	12.91	3
46	19549	13.01	3
46	19699	13.11	3
46	19849	13.21	3
46	19999	13.31	3
46	20149	13.41	3
46	20299	13.51	3
46	20449	13.61	3
46	20599	13.71	3
46	20749	13.81	3
46	20899	13.91	3
46	21053	14.01	3
46	21203	14.11	3
46	21353	14.21	3
46	21503	14.31	3
46	21653	14.41	3
46	21803	14.51	3
46	21953	14.61	3
46	22103	14.71	3
46	22253	14.81	3
46	22403	14.91	3
46	22557	15.01	3
46	22707	15.11	3
46	22857	15.21	3
46	23007	15.31	3
46	23157	15.41	3
46	23307	15.51	3
46	23457	15.61	3
46	23607	15.71	3
46	23757	15.81	3
46	23907	15.91	3
46	24061	16.01	3
46	24211	16.11	3
46	24361	16.21	3
46	24511	16.31	3
46	24661	16.41	3
46	24811	16.51	3
46	24961	16.61	3
46	25111	16.71	3
46	25261	16.81	3
46	25411	16.91	3
46	25565	17.01	3
46	25715	17.11	3
46	25865	17.21	3
46	26015	17.31	3
46	26165	17.41	3
46	26315	17.51	3
46	26465	17.61	3
46	26615	17.71	3
46	26765	17.81	3
46	26915	17.91	3
46	27069	18.01	3
46	27219	18.11	3
46	27369	18.21	3
46	27519	18.31	3
46	27669	18.41	3
46	27819	18.51	3
46	27969	18.61	3
46	28119	18.71	3
46	28269	18.81	3
46	28419	18.91	3
46	28573	19.01	3
46	28723	19.11	3
46	28873	19.21	3
46	29023	19.31	3
46	29173	19.41	3
46	29323	19.51	3
46	29473	19.61	3
46	29623	19.71	3
46	29773	19.81	3
46	29923	19.91	3
46	30077	20.01	3
46	30227	20.11	3
46	30377	20.21	3
46	30527	20.31	3
46	30677	20.41	3
46	30827	20.51	3
46	30977	20.61	3
46	31127	20.71	3
46	31277	20.81	3
46	31427	20.91	3
46	31581	21.01	3
46	31731	21.11	3
46	31881	21.21	3
46	32031	21.31	3
46	32181	21.41	3
46	32331	21.51	3
46	32481	21.61	3
46	32631	21.71	3
46	32781	21.81	3
46	32931	21.91	3
46	33085	22.01	3
46	33235	22.11	3
46	33385	22.21	3
46	33535	22.31	3
46	33685	22.41	3
46	33835	22.51	3
46	33985	22.61	3
46	34135	22.71	3
46	34285	22.81	3
46	34435	22.91	3
46	34589	23.01	3
46	34739	23.11	3
46	34889	23.21	3
46	35039	23.31	3
46	35189	23.41	3
46	35339	23.51	3
46	35489	23.61	3
46	35639	23.71	3
46	35789	23.81	3
46	35939	23.91	3
46	36093	24.01	3
46	36243	24.11	3
46	36393	24.21	3
46	36543	24.31	3
46	36693	24.41	3
46	36843	24.51	3
46	36993	24.61	3
46	37143	24.71	3
46	37293	24.81	3
46	37443	24.91	3
46	37597	25.01	3
46	37747	25.11	3
46	37897	25.21	3
46	38047	25.31	3
46	38197	25.41	3
46	38347	25.51	3
46	38497	25.61	3
46	38647	25.71	3
46	38797	25.81	3
46	38947	25.91	3
46	39101	26.01	3
46	39251	26.11	3
46	39401	26.21	3
46	39551	26.31	3
46	39701	26.41	3
46	39851	26.51	3
46	40001	26.61	3
46	40151	26.71	3
46	40301	26.81	3
46	40451	26.91	3
46	40605	27.01	3
46	40755	27.11	3
46	40905	27.21	3
46	41055	27.31	3
46	41205	27.41	3
46	41355	27.51	3
46	41505	27.61	3
46	41655	27.71	3
46	41805	27.81	3
46	41955	27.91	3
46	42109	28.01	3
46	42259	28.11	3
46	42409	28.21	3
46	42559	28.31	3
46	42709	28.41	3
46	42859	28.51	3
46	43009	28.61	3
46	43159	28.71	3
46	43309	28.81	3
46	43459	28.91	3
46	43613	29.01	3
46	43763	29.11	3
46	43913	29.21	3
46	44063	29.31	3
46	44213	29.41	3
46	44363	29.51	3
46	44513	29.61	3
46	44663	29.71	3
46	44813	29.81	3
46	44963	29.91	3
46	45117	30.01	3
46	45267	30.11	3
46	45417	30.21	3
46	45567	30.31	3
46	45717	30.41	3
46	45867	30.51	3
46	46017	30.61	3
46	46167	30.71	3
46	46317	30.81	3
46	46467	30.91	3
46	46621	31.01	3
46	46771	31.11	3
67	1191	1	0
67	2964	2	0
67	4468	3	0
67	5972	4	0
67	7476	5	0
67	8980	6	0
67	10484	7	0
67	11988	8	0
67	13492	9	0
67	14996	10	0
67	16500	11	0
67	18006	12	0
67	19510	13	0
67	21014	14	0
67	22518	15	0
67	24022	16	0
67	25526	17	0
67	27030	18	0
67	28534	19	0
67	30038	20	0
67	31542	21	0
67	33046	22	0
67	34550	23	0
67	36054	24	0
67	37558	25	0
67	39062	26	0
67	40566	27	0
67	42070	28	0
67	43574	29	0
67	45078	30	0
67	46582	31	0
66	1191	1	0.009679
66	2964	2	0.013149855772
66	4468	3	0.01249
66	5972	4	0.01249
66	7476	5	0.01249
66	8980	6	0.01249
66	10484	7	0.01249
66	11988	8	0.01249
66	13492	9	0.01249
66	14996	10	0.01249
66	16500	11	0.01249
66	18006	12	0.01249
66	19510	13	0.01249
66	21014	14	0.01249
66	22518	15	0.01249
66	24022	16	0.01249
66	25526	17	0.01249
66	27030	18	0.01249
66	28534	19	0.01249
66	30038	20	0.01249
66	31542	21	0.01249
66	33046	22	0.01249
66	34550	23	0.01249
66	36054	24	0.01249
66	37558	25	0.01249
66	39062	26	0.01249
66	40566	27	0.01249
66	42070	28	0.01249
66	43574	29	0.01249
66	45078	30	0.01249
66	46582	31	0.01249
65	1191	1	3
65	2964	2	3
65	4468	3	3
65	5972	4	3
65	7476	5	3
65	8980	6	3
65	10484	7	3
65	11988	8	3
65	13492	9	3
65	14996	10	3
65	16500	11	3
65	18006	12	3
65	19510	13	3
65	21014	14	3
65	22518	15	3
65	24022	16	3
65	25526	17	3
65	27030	18	3
65	28534	19	3
65	30038	20	3
65	31542	21	3
65	33046	22	3
65	34550	23	3
65	36054	24	3
65	37558	25	3
65	39062	26	3
65	40566	27	3
65	42070	28	3
65	43574	29	3
65	45078	30	3
65	46582	31	3
19	15	0.13	2.44929306
19	16	0.14	2.44929306
19	17	0.15	2.44929306
19	18	0.16	2.44929306
19	19	0.17	2.44929306
19	20	0.18	2.44929306
19	21	0.19	2.44929306
19	22	0.2	2.44929306
19	27	0.21	2.44929306
19	62	0.22	2.44929306
19	97	0.23	2.44929306
19	98	0.24	2.44929306
19	99	0.25	2.44929306
19	134	0.26	2.44929306
19	135	0.27	2.44929306
19	136	0.28	2.44929306
19	137	0.29	2.44929306
19	138	0.3	2.44929306
19	177	0.31	2.44929306
19	212	0.32	2.44929306
19	247	0.33	2.44929306
19	248	0.34	2.44929306
19	249	0.35	2.44929306
19	284	0.36	2.44929306
19	285	0.37	2.44929306
19	286	0.38	2.44929306
19	287	0.39	2.44929306
19	288	0.4	2.44929306
19	327	0.41	2.44929306
19	362	0.42	2.44929306
19	397	0.43	2.44929306
19	398	0.44	2.44929306
19	399	0.45	2.44929306
19	434	0.46	2.44929306
19	435	0.47	2.44929306
19	436	0.48	2.44929306
19	437	0.49	2.44929306
19	438	0.5	2.44929306
19	477	0.51	2.44929306
19	512	0.52	2.44929306
19	547	0.53	2.44929306
19	548	0.54	2.44929306
19	549	0.55	2.44929306
19	584	0.56	2.44929306
19	585	0.57	2.44929306
19	586	0.58	2.44929306
19	587	0.59	2.44929306
19	588	0.6	2.44929306
19	627	0.61	2.44929306
19	662	0.62	2.44929306
19	697	0.63	2.44929306
19	698	0.64	2.44929306
19	699	0.65	2.44929306
19	734	0.66	2.44929306
19	735	0.67	2.44929306
19	736	0.68	2.44929306
19	737	0.69	2.44929306
19	738	0.7	2.44929306
19	777	0.71	2.44929306
19	812	0.72	2.44929306
19	847	0.73	2.44929306
19	848	0.74	2.44929306
19	849	0.75	2.44929306
19	884	0.76	2.44929306
19	885	0.77	2.44929306
19	886	0.78	2.44929306
19	887	0.79	2.44929306
19	888	0.8	2.44929306
19	927	0.81	2.44929306
19	962	0.82	2.44929306
19	997	0.83	2.44929306
19	998	0.84	2.44929306
19	999	0.85	2.44929306
19	1034	0.86	2.44929306
19	1035	0.87	2.44929306
19	1036	0.88	2.44929306
19	1037	0.89	2.44929306
19	1038	0.9	2.44929306
19	1077	0.91	2.44929306
19	1112	0.92	2.44929306
19	1147	0.93	2.44929306
19	1148	0.94	2.44929306
19	1149	0.95	2.44929306
19	1184	0.96	2.44929306
19	1185	0.97	2.44929306
19	1186	0.98	2.44929306
19	1187	0.99	2.44929306
19	1192	1	2.44929306
19	1231	1.01	2.44929306
19	1266	1.02	2.44929306
19	1301	1.03	2.44929306
19	1302	1.04	2.44929306
19	1303	1.05	2.44929306
19	1338	1.06	2.44929306
19	1339	1.07	2.44929306
19	1340	1.08	2.44929306
19	1341	1.09	2.44929306
19	1342	1.1	2.44929306
19	1382	1.11	2.44929306
19	1417	1.12	2.44929306
19	1452	1.13	2.44929306
19	1453	1.14	2.44929306
19	1454	1.15	2.44929306
19	1489	1.16	2.44929306
19	1490	1.17	2.44929306
19	1491	1.18	2.44929306
19	1492	1.19	2.44929306
19	1493	1.2	2.44929306
19	1533	1.21	2.44929306
19	1568	1.22	2.44929306
19	1603	1.23	2.44929306
19	1604	1.24	2.44929306
19	1605	1.25	2.44929306
19	1640	1.26	2.44929306
19	1641	1.27	2.44929306
19	1642	1.28	2.44929306
19	1643	1.29	2.44929306
19	1644	1.3	2.44929306
19	1684	1.31	2.44929306
19	1931	1.32	2.44929306
19	1966	1.33	2.44929306
19	1967	1.34	2.44929306
19	1968	1.35	2.44929306
19	2004	1.36	2.44929306
19	2058	1.37	2.4310528645808
19	2059	1.38	2.4131647416144
19	2060	1.39	2.3956219134811
19	2061	1.4	2.3784177297746
19	2100	1.41	2.3615456650475
19	2135	1.42	2.3449993165852
19	2170	1.43	2.3287724022215
19	2171	1.44	2.3128587581817
19	2172	1.45	2.2972523369623
19	2207	1.46	2.2819472052454
19	2208	1.47	2.2669375418414
19	2209	1.48	2.2522176356737
19	2210	1.49	2.2377818837848
19	2211	1.5	2.2236247893829
19	2250	1.51	2.2097409599168
19	2285	1.52	2.1961251051795
19	2320	1.53	2.1827720354521
19	2321	1.54	2.1696766596654
19	2322	1.55	2.1568339836041
19	2357	1.56	2.1442391081295
19	2358	1.57	2.1318872274444
19	2359	1.58	2.1197736273742
19	2360	1.59	2.1078936836877
19	2361	1.6	2.0962428604368
19	2400	1.61	2.0848167083332
19	2435	1.62	2.073610863148
19	2470	1.63	2.0626210441375
19	2471	1.64	2.0518430524966
19	2472	1.65	2.0412727698438
19	2507	1.66	2.0309061567247
19	2508	1.67	2.0207392511457
19	2509	1.68	2.0107681671345
19	2510	1.69	2.0009890933221
19	2511	1.7	1.9913982915507
19	2550	1.71	1.9819920955052
19	2585	1.72	1.9727669093723
19	2620	1.73	1.9637192065182
19	2621	1.74	1.9548455281947
19	2622	1.75	1.9461424822652
19	2657	1.76	1.9376067419496
19	2658	1.77	1.9292350446014
19	2659	1.78	1.9210241904954
19	2660	1.79	1.912971041648
19	2661	1.8	1.9050725206469
19	2700	1.81	1.8973256095118
19	2735	1.82	1.8897273485729
19	2770	1.83	1.8822748353623
19	2771	1.84	1.8749652235385
19	2772	1.85	1.8677957218198
19	2807	1.86	1.8607635929389
19	2808	1.87	1.8538661526217
19	2809	1.88	1.8471007685798
19	2810	1.89	1.8404648595202
19	2811	1.9	1.8339558941796
19	2850	1.91	1.8275713903697
19	2885	1.92	1.8213089140427
19	2920	1.93	1.8151660783729
19	2921	1.94	1.8091405428587
19	2922	1.95	1.8032300124377
19	2957	1.96	1.7974322366145
19	2958	1.97	1.7917450086161
19	2959	1.98	1.7861661645504
19	2960	1.99	1.7806935825883
19	2965	2	1.7753251821567
19	3004	2.01	1.770058923147
19	3039	2.02	1.7648928051431
19	3074	2.03	1.7598248666587
19	3075	2.04	1.7548531843863
19	3076	2.05	1.7499758724692
19	3111	2.06	1.745191081777
19	3112	2.07	1.7404969992067
19	3113	2.08	1.7358918469811
19	3114	2.09	1.7313738819734
19	3115	2.1	1.7269413950428
19	3154	2.11	1.7225927103732
19	3189	2.12	1.7183261848369
19	3224	2.13	1.7141402073606
19	3225	2.14	1.7100331983075
19	3226	2.15	1.7060036088723
19	3261	2.16	1.7020499204857
19	3262	2.17	1.6981706442282
19	3263	2.18	1.6943643202595
19	3264	2.19	1.6906295172545
19	3265	2.2	1.6869648318522
19	3304	2.21	1.683368888115
19	3339	2.22	1.679840337
19	3374	2.23	1.6763778558333
19	3375	2.24	1.6729801478051
19	3376	2.25	1.6696459414619
19	3411	2.26	1.6663739902213
19	3412	2.27	1.6631630718848
19	3413	2.28	1.6600119881696
19	3414	2.29	1.6569195642397
19	3415	2.3	1.6538846482522
19	3454	2.31	1.6509061109144
19	3489	2.32	1.6479828450412
19	3524	2.33	1.645113765127
19	3525	2.34	1.642297806926
19	3526	2.35	1.6395339270369
19	3561	2.36	1.6368211024963
19	3562	2.37	1.6341583303867
19	3563	2.38	1.6315446274397
19	3564	2.39	1.6289790296572
19	3565	2.4	1.6264605919364
19	3604	2.41	1.623988387701
19	3639	2.42	1.6215615085408
19	3674	2.43	1.6191790638561
19	3675	2.44	1.6168401805115
19	3676	2.45	1.6145440024981
19	3711	2.46	1.612289690596
19	3712	2.47	1.6100764220464
19	3713	2.48	1.6079033902366
19	3714	2.49	1.6057698043758
19	3715	2.5	1.6036748891952
19	3754	2.51	1.6016178846367
19	3789	2.52	1.5995980455649
19	3824	2.53	1.5976146414675
19	3825	2.54	1.5956669561757
19	3826	2.55	1.5937542875785
19	3861	2.56	1.5918759473545
19	3862	2.57	1.5900312606962
19	3863	2.58	1.588219566048
19	3864	2.59	1.5864402148514
19	3865	2.6	1.5846925712822
19	3904	2.61	1.582976012011
19	3939	2.62	1.581289925951
19	3974	2.63	1.579633714022
19	3975	2.64	1.5780067889165
19	3976	2.65	1.5764085748669
19	4011	2.66	1.5748385074213
19	4012	2.67	1.5732960332201
19	4013	2.68	1.5717806097805
19	4014	2.69	1.5702917052846
19	4015	2.7	1.5688287983658
19	4054	2.71	1.5673913779103
19	4089	2.72	1.5659789428506
19	4124	2.73	1.564591001973
19	4125	2.74	1.5632270737214
19	4126	2.75	1.5618866860112
19	4161	2.76	1.56056937604
19	4162	2.77	1.5592746901088
19	4163	2.78	1.5580021834409
19	4164	2.79	1.5567514200069
19	4165	2.8	1.5555219723587
19	4204	2.81	1.5543134214527
19	4239	2.82	1.5531253564903
19	4274	2.83	1.5519573747558
19	4275	2.84	1.5508090814577
19	4276	2.85	1.5496800895693
19	4311	2.86	1.5485700196826
19	4312	2.87	1.5474784998562
19	4313	2.88	1.5464051654656
19	4314	2.89	1.545349659062
19	4315	2.9	1.5443116302351
19	4354	2.91	1.5432907354677
19	4389	2.92	1.5422866380067
19	4424	2.93	1.5412990077256
19	4425	2.94	1.5403275209985
19	4426	2.95	1.5393718605686
19	4461	2.96	1.5384317154264
19	4462	2.97	1.537506780683
19	4463	2.98	1.5365967574542
19	4464	2.99	1.535701352741
19	4469	3	1.5348202793112
19	4508	3.01	1.5339532555898
19	4543	3.02	1.5331000055469
19	4578	3.03	1.5322602585871
19	4579	3.04	1.5314337494453
19	4580	3.05	1.5306202180781
19	4615	3.06	1.5298194095661
19	4616	3.07	1.5290310740076
19	4617	3.08	1.5282549664255
19	4618	3.09	1.5274908466658
19	4619	3.1	1.5267384793073
19	4658	3.11	1.5259976335643
19	4693	3.12	1.5252680831956
19	4728	3.13	1.5245496064199
19	4729	3.14	1.5238419858235
19	4730	3.15	1.5231450082746
19	4765	3.16	1.5224584648424
19	4766	3.17	1.5217821507102
19	4767	3.18	1.5211158650992
19	4768	3.19	1.5204594111827
19	4769	3.2	1.5198125960146
19	4808	3.21	1.5191752304497
19	4843	3.22	1.5185471290703
19	4878	3.23	1.5179281101115
19	4879	3.24	1.517317995389
19	4880	3.25	1.516716610232
19	4915	3.26	1.516123783411
19	4916	3.27	1.5155393470705
19	4917	3.28	1.5149631366617
19	4918	3.29	1.5143949908795
19	4919	3.3	1.5138347515994
19	4958	3.31	1.5132822638103
19	4993	3.32	1.5127373755577
19	5028	3.33	1.5121999378805
19	5029	3.34	1.5116698047558
19	5030	3.35	1.5111468330388
19	5065	3.36	1.5106308824031
19	5066	3.37	1.5101218152897
19	5067	3.38	1.5096194968531
19	5068	3.39	1.5091237949014
19	5069	3.4	1.5086345798528
19	5108	3.41	1.5081517246773
19	5143	3.42	1.5076751048488
19	5178	3.43	1.5072045982971
19	5179	3.44	1.5067400853573
19	5180	3.45	1.5062814487244
19	5215	3.46	1.5058285734042
19	5216	3.47	1.5053813466714
19	5217	3.48	1.5049396580232
19	5218	3.49	1.504503399133
19	5219	3.5	1.504072463811
19	5258	3.51	1.5036467479614
19	5293	3.52	1.5032261495403
19	5328	3.53	1.5028105685152
19	5329	3.54	1.5023999068262
19	5330	3.55	1.5019940683471
19	5365	3.56	1.5015929588464
19	5366	3.57	1.5011964859502
19	5367	3.58	1.5008045591074
19	5368	3.59	1.5004170895495
19	5369	3.6	1.5000339902609
19	5408	3.61	1.4996551759413
19	5443	3.62	1.4992805629697
19	5478	3.63	1.4989100693776
19	5479	3.64	1.4985436148105
19	5480	3.65	1.4981811205002
19	5515	3.66	1.4978225092283
19	5516	3.67	1.4974677053031
19	5517	3.68	1.4971166345226
19	5518	3.69	1.496769224149
19	5519	3.7	1.4964254028773
19	5558	3.71	1.4960851008116
19	5593	3.72	1.4957482494317
19	5628	3.73	1.4954147815713
19	5629	3.74	1.4950846313848
19	5630	3.75	1.4947577343281
19	5665	3.76	1.4944340271284
19	5666	3.77	1.4941134477621
19	5667	3.78	1.4937959354262
19	5668	3.79	1.4934814305208
19	5669	3.8	1.4931698746171
19	5708	3.81	1.4928612104401
19	5743	3.82	1.4925553818459
19	5778	3.83	1.4922523337947
19	5779	3.84	1.4919520123363
19	5780	3.85	1.4916543645801
19	5815	3.86	1.4913593386811
19	5816	3.87	1.4910668838171
19	5817	3.88	1.4907769501669
19	5818	3.89	1.4904894888913
19	5819	3.9	1.4902044521166
19	5858	3.91	1.4899217929109
19	5893	3.92	1.4896414652691
19	5928	3.93	1.4893634240931
19	5929	3.94	1.4890876251762
19	5930	3.95	1.4888140251802
19	5965	3.96	1.4885425816234
19	5966	3.97	1.4882732528616
19	5967	3.98	1.4880059980715
19	5968	3.99	1.4877407772357
19	5973	4	1.4874775511267
19	6012	4.01	1.4872162812883
19	6047	4.02	1.486956930026
19	6082	4.03	1.4866994603857
19	6083	4.04	1.4864438361432
19	6084	4.05	1.4861900217895
19	6119	4.06	1.4859379825159
19	6120	4.07	1.485687684199
19	6121	4.08	1.4854390933904
19	6122	4.09	1.4851921772987
19	6123	4.1	1.4849469037808
19	6162	4.11	1.4847032413282
19	6197	4.12	1.4844611590524
19	6232	4.13	1.4842206266757
19	6233	4.14	1.4839816145164
19	6234	4.15	1.4837440934773
19	6269	4.16	1.4835080350377
19	6270	4.17	1.4832734112386
19	6271	4.18	1.4830401946697
19	6272	4.19	1.4828083584647
19	6273	4.2	1.4825778762863
19	6312	4.21	1.482348722316
19	6347	4.22	1.4821208712451
19	6382	4.23	1.4818942982642
19	6383	4.24	1.4816689790518
19	6384	4.25	1.4814448897674
19	6419	4.26	1.4812220070406
19	6420	4.27	1.481000307963
19	6421	4.28	1.4807797700754
19	6422	4.29	1.4805603713626
19	6423	4.3	1.4803420902453
19	6462	4.31	1.4801249055677
19	6497	4.32	1.479908796593
19	6532	4.33	1.4796937429919
19	6533	4.34	1.4794797248364
19	6534	4.35	1.4792667225925
19	6569	4.36	1.4790547171097
19	6570	4.37	1.4788436896167
19	6571	4.38	1.4786336217121
19	6572	4.39	1.4784244953561
19	6573	4.4	1.4782162928671
19	6612	4.41	1.4780089969114
19	6647	4.42	1.477802590496
19	6682	4.43	1.4775970569637
19	6683	4.44	1.4773923799863
19	6684	4.45	1.4771885435566
19	6719	4.46	1.4769855319842
19	6720	4.47	1.4767833298881
19	6721	4.48	1.4765819221895
19	6722	4.49	1.4763812941084
19	6723	4.5	1.4761814311549
19	6762	4.51	1.4759823191264
19	6797	4.52	1.4757839440984
19	6832	4.53	1.4755862924233
19	6833	4.54	1.47538935072
19	6834	4.55	1.4751931058752
19	6869	4.56	1.47499754503
19	6870	4.57	1.4748026555819
19	6871	4.58	1.4746084251753
19	6872	4.59	1.474414841699
19	6873	4.6	1.47422189328
19	6912	4.61	1.4740295682806
19	6947	4.62	1.4738378552925
19	6982	4.63	1.473646743131
19	6983	4.64	1.4734562208333
19	6984	4.65	1.4732662776528
19	7019	4.66	1.4730769030531
19	7020	4.67	1.4728880867077
19	7021	4.68	1.4726998184932
19	7022	4.69	1.4725120884845
19	7023	4.7	1.4723248869532
19	7062	4.71	1.4721382043635
19	7097	4.72	1.4719520313662
19	7132	4.73	1.4717663587969
19	7133	4.74	1.4715811776734
19	7134	4.75	1.4713964791883
19	7169	4.76	1.4712122547089
19	7170	4.77	1.4710284957725
19	7171	4.78	1.4708451940841
19	7172	4.79	1.4706623415098
19	7173	4.8	1.4704799300804
19	7212	4.81	1.4702979519789
19	7247	4.82	1.470116399547
19	7282	4.83	1.4699352652743
19	7283	4.84	1.4697545417989
19	7284	4.85	1.4695742219051
19	7319	4.86	1.4693942985184
19	7320	4.87	1.4692147647047
19	7321	4.88	1.4690356136648
19	7322	4.89	1.4688568387375
19	7323	4.9	1.4686784333875
19	7362	4.91	1.4685003912127
19	7397	4.92	1.4683227059358
19	7432	4.93	1.4681453714024
19	7433	4.94	1.4679683815811
19	7434	4.95	1.4677917305578
19	7469	4.96	1.4676154125355
19	7470	4.97	1.4674394218314
19	7471	4.98	1.4672637528739
19	7472	4.99	1.4670884002043
19	7477	5	1.4669133584677
19	7516	5.01	1.4667386224174
19	7551	5.02	1.4665641869094
19	7586	5.03	1.4663900468989
19	7587	5.04	1.4662161974451
19	7588	5.05	1.4660426336995
19	7623	5.06	1.4658693509128
19	7624	5.07	1.465696344428
19	7625	5.08	1.4655236096801
19	7626	5.09	1.4653511421935
19	7627	5.1	1.4651789375815
19	7666	5.11	1.4650069915437
19	7701	5.12	1.4648352998633
19	7736	5.13	1.4646638584078
19	7737	5.14	1.4644926631268
19	7738	5.15	1.4643217100489
19	7773	5.16	1.4641509952797
19	7774	5.17	1.4639805150027
19	7775	5.18	1.463810265477
19	7776	5.19	1.4636402430362
19	7777	5.2	1.4634704440828
19	7816	5.21	1.4633008650934
19	7851	5.22	1.4631315026134
19	7886	5.23	1.4629623532539
19	7887	5.24	1.4627934136959
19	7888	5.25	1.4626246806846
19	7923	5.26	1.4624561510282
19	7924	5.27	1.4622878216002
19	7925	5.28	1.4621196893327
19	7926	5.29	1.4619517512204
19	7927	5.3	1.4617840043162
19	7966	5.31	1.4616164457317
19	8001	5.32	1.4614490726349
19	8036	5.33	1.4612818822495
19	8037	5.34	1.4611148718544
19	8038	5.35	1.4609480387811
19	8073	5.36	1.460781380415
19	8074	5.37	1.4606148941924
19	8075	5.38	1.4604485775992
19	8076	5.39	1.4602824281723
19	8077	5.4	1.460116443495
19	8116	5.41	1.4599506212004
19	8151	5.42	1.459784958968
19	8186	5.43	1.4596194545211
19	8187	5.44	1.4594541056295
19	8188	5.45	1.4592889101052
19	8223	5.46	1.4591238658053
19	8224	5.47	1.4589589706277
19	8225	5.48	1.4587942225125
19	8226	5.49	1.4586296194405
19	8227	5.5	1.4584651594317
19	8266	5.51	1.458300840544
19	8301	5.52	1.4581366608745
19	8336	5.53	1.4579726185598
19	8337	5.54	1.4578087117695
19	8338	5.55	1.4576449387099
19	8373	5.56	1.4574812976249
19	8374	5.57	1.457317786792
19	8375	5.58	1.4571544045205
19	8376	5.59	1.456991149156
19	8377	5.6	1.4568280190747
19	8416	5.61	1.4566650126849
19	8451	5.62	1.4565021284265
19	8486	5.63	1.4563393647701
19	8487	5.64	1.4561767202169
19	8488	5.65	1.4560141932969
19	8523	5.66	1.4558517825692
19	8524	5.67	1.4556894866207
19	8525	5.68	1.4555273040669
19	8526	5.69	1.4553652335498
19	8527	5.7	1.4552032737374
19	8566	5.71	1.4550414233266
19	8601	5.72	1.4548796810361
19	8636	5.73	1.4547180456138
19	8637	5.74	1.454556515829
19	8638	5.75	1.4543950904775
19	8673	5.76	1.4542337683765
19	8674	5.77	1.454072548368
19	8675	5.78	1.4539114293158
19	8676	5.79	1.4537504101067
19	8677	5.8	1.4535894896494
19	8716	5.81	1.4534286668729
19	8751	5.82	1.4532679407292
19	8786	5.83	1.4531073101892
19	8787	5.84	1.4529467742442
19	8788	5.85	1.4527863319071
19	8823	5.86	1.4526259822067
19	8824	5.87	1.4524657241937
19	8825	5.88	1.452305556936
19	8826	5.89	1.4521454795217
19	8827	5.9	1.4519854910535
19	8866	5.91	1.4518255906545
19	8901	5.92	1.4516657774647
19	8936	5.93	1.4515060506392
19	8937	5.94	1.4513464093513
19	8938	5.95	1.4511868527891
19	8973	5.96	1.4510273801595
19	8974	5.97	1.4508679906808
19	8975	5.98	1.4507086835901
19	8976	5.99	1.4505494581378
19	8981	6	1.4503903135884
19	9020	6.01	1.4502312492225
19	9055	6.02	1.4500722643336
19	9090	6.03	1.4499133582284
19	9091	6.04	1.4497545302291
19	9092	6.05	1.4495957796698
19	9127	6.06	1.4494371058989
19	9128	6.07	1.449278508275
19	9129	6.08	1.4491199861725
19	9130	6.09	1.4489615389745
19	9131	6.1	1.4488031660799
19	9170	6.11	1.4486448668964
19	9205	6.12	1.4484866408446
19	9240	6.13	1.4483284873566
19	9241	6.14	1.4481704058746
19	9242	6.15	1.4480123958526
19	9277	6.16	1.4478544567543
19	9278	6.17	1.4476965880551
19	9279	6.18	1.4475387892393
19	9280	6.19	1.4473810598037
19	9281	6.2	1.4472233992512
19	9320	6.21	1.4470658070977
19	9355	6.22	1.4469082828661
19	9390	6.23	1.4467508260909
19	9391	6.24	1.4465934363139
19	9392	6.25	1.4464361130854
19	9427	6.26	1.4462788559674
19	9428	6.27	1.4461216645275
19	9429	6.28	1.445964538342
19	9430	6.29	1.4458074769972
19	9431	6.3	1.4456504800868
19	9470	6.31	1.4454935472101
19	9505	6.32	1.4453366779779
19	9540	6.33	1.4451798720054
19	9541	6.34	1.4450231289179
19	9542	6.35	1.4448664483463
19	9577	6.36	1.4447098299289
19	9578	6.37	1.4445532733109
19	9579	6.38	1.444396778145
19	9580	6.39	1.444240344091
19	9581	6.4	1.4440839708129
19	9620	6.41	1.4439276579849
19	9655	6.42	1.4437714052839
19	9690	6.43	1.4436152123957
19	9691	6.44	1.4434590790101
19	9692	6.45	1.4433030048258
19	9727	6.46	1.4431469895441
19	9728	6.47	1.4429910328738
19	9729	6.48	1.4428351345292
19	9730	6.49	1.4426792942289
19	9731	6.5	1.4425235116989
19	9770	6.51	1.4423677866707
19	9805	6.52	1.4422121188774
19	9840	6.53	1.4420565080621
19	9841	6.54	1.4419009539692
19	9842	6.55	1.4417454563492
19	9877	6.56	1.4415900149579
19	9878	6.57	1.4414346295543
19	9879	6.58	1.4412792999043
19	9880	6.59	1.441124025777
19	9881	6.6	1.4409688069456
19	9920	6.61	1.4408136431889
19	9955	6.62	1.4406585342888
19	9990	6.63	1.4405034800315
19	9991	6.64	1.4403484802073
19	9992	6.65	1.440193534611
19	10027	6.66	1.4400386430416
19	10028	6.67	1.4398838053011
19	10029	6.68	1.4397290211969
19	10030	6.69	1.4395742905368
19	10031	6.7	1.4394196131355
19	10070	6.71	1.4392649888092
19	10105	6.72	1.43911041738
19	10140	6.73	1.438955898671
19	10141	6.74	1.4388014325087
19	10142	6.75	1.4386470187249
19	10177	6.76	1.438492657153
19	10178	6.77	1.4383383476294
19	10179	6.78	1.4381840899959
19	10180	6.79	1.4380298840946
19	10181	6.8	1.4378757297703
19	10220	6.81	1.4377216268735
19	10255	6.82	1.4375675752563
19	10290	6.83	1.4374135747735
19	10291	6.84	1.4372596252814
19	10292	6.85	1.4371057266419
19	10327	6.86	1.4369518787172
19	10328	6.87	1.4367980813719
19	10329	6.88	1.436644334474
19	10330	6.89	1.4364906378938
19	10331	6.9	1.4363369915049
19	10370	6.91	1.4361833951822
19	10405	6.92	1.4360298488032
19	10440	6.93	1.4358763522487
19	10441	6.94	1.4357229054006
19	10442	6.95	1.4355695081422
19	10477	6.96	1.4354161603615
19	10478	6.97	1.4352628619459
[...]
2	60198	55.23	931.55726268403
2	60199	55.24	931.69615168374
2	60200	55.25	931.83504068346
2	60219	55.26	931.97392968317
2	60220	55.27	932.11281868289
2	60221	55.28	932.2517076826
2	60222	55.29	932.39059668231
2	60223	55.3	932.52948568203
2	60226	55.31	932.66837468175
2	60227	55.32	932.80726368146
2	60246	55.33	932.94615268118
2	60247	55.34	933.0850416809
2	60248	55.35	933.22393068061
2	60267	55.36	933.36281968033
2	60268	55.37	933.50170868005
2	60269	55.38	933.64059767977
2	60270	55.39	933.77948667949
2	60271	55.4	933.91837567921
2	60274	55.41	934.05726467893
2	60275	55.42	934.19615367865
2	60294	55.43	934.33504267837
2	60295	55.44	934.47393167809
2	60296	55.45	934.61282067782
2	60315	55.46	934.75170967754
2	60316	55.47	934.89059867726
2	60317	55.48	935.02948767698
2	60318	55.49	935.16837667671
2	60319	55.5	935.30726567643
2	60322	55.51	935.44615467616
2	60323	55.52	935.58504367588
2	60342	55.53	935.72393267561
2	60343	55.54	935.86282167533
2	60344	55.55	936.00171067506
2	60363	55.56	936.14059967479
2	60364	55.57	936.27948867451
2	60365	55.58	936.41837767424
2	60366	55.59	936.55726667397
2	60367	55.6	936.6961556737
2	60370	55.61	936.83504467343
2	60371	55.62	936.97393367316
2	60390	55.63	937.11282267289
2	60391	55.64	937.25171167262
2	60392	55.65	937.39060067235
2	60411	55.66	937.52948967208
2	60412	55.67	937.66837867181
2	60413	55.68	937.80726767154
2	60414	55.69	937.94615667127
2	60415	55.7	938.08504567101
2	60418	55.71	938.22393467074
2	60419	55.72	938.36282367047
2	60438	55.73	938.50171267021
2	60439	55.74	938.64060166994
2	60440	55.75	938.77949066968
2	60459	55.76	938.91837966941
2	60460	55.77	939.05726866915
2	60461	55.78	939.19615766888
2	60462	55.79	939.33504666862
2	60463	55.8	939.47393566836
2	60466	55.81	939.61282466809
2	60467	55.82	939.75171366783
2	60486	55.83	939.89060266757
2	60487	55.84	940.02949166731
2	60488	55.85	940.16838066705
2	60507	55.86	940.30726966679
2	60508	55.87	940.44615866653
2	60509	55.88	940.58504766627
2	60510	55.89	940.72393666601
2	60511	55.9	940.86282566575
2	60514	55.91	941.00171466549
2	60515	55.92	941.14060366523
2	60534	55.93	941.27949266497
2	60535	55.94	941.41838166472
2	60536	55.95	941.55727066446
2	60555	55.96	941.6961596642
2	60556	55.97	941.83504866395
2	60557	55.98	941.97393766369
2	60558	55.99	942.11282666343
2	60561	56	942.25171566318
2	60564	56.01	942.39060466292
2	60565	56.02	942.52949366267
2	60584	56.03	942.66838266242
2	60585	56.04	942.80727166216
2	60586	56.05	942.94616066191
2	60605	56.06	943.08504966166
2	60606	56.07	943.2239386614
2	60607	56.08	943.36282766115
2	60608	56.09	943.5017166609
2	60609	56.1	943.64060566065
2	60612	56.11	943.7794946604
2	60613	56.12	943.91838366015
2	60632	56.13	944.0572726599
2	60633	56.14	944.19616165965
2	60634	56.15	944.3350506594
2	60653	56.16	944.47393965915
2	60654	56.17	944.6128286589
2	60655	56.18	944.75171765866
2	60656	56.19	944.89060665841
2	60657	56.2	945.02949565816
2	60660	56.21	945.16838465791
2	60661	56.22	945.30727365767
2	60680	56.23	945.44616265742
2	60681	56.24	945.58505165718
2	60682	56.25	945.72394065693
2	60701	56.26	945.86282965669
2	60702	56.27	946.00171865644
2	60703	56.28	946.1406076562
2	60704	56.29	946.27949665595
2	60705	56.3	946.41838565571
2	60708	56.31	946.55727465547
2	60709	56.32	946.69616365522
2	60728	56.33	946.83505265498
2	60729	56.34	946.97394165474
2	60730	56.35	947.1128306545
2	60749	56.36	947.25171965426
2	60750	56.37	947.39060865402
2	60751	56.38	947.52949765378
2	60752	56.39	947.66838665354
2	60753	56.4	947.8072756533
2	60756	56.41	947.94616465306
2	60757	56.42	948.08505365282
2	60776	56.43	948.22394265258
2	60777	56.44	948.36283165234
2	60778	56.45	948.5017206521
2	60797	56.46	948.64060965187
2	60798	56.47	948.77949865163
2	60799	56.48	948.91838765139
2	60800	56.49	949.05727665116
2	60801	56.5	949.19616565092
2	60804	56.51	949.33505465069
2	60805	56.52	949.47394365045
2	60824	56.53	949.61283265022
2	60825	56.54	949.75172164998
2	60826	56.55	949.89061064975
2	60845	56.56	950.02949964951
2	60846	56.57	950.16838864928
2	60847	56.58	950.30727764905
2	60848	56.59	950.44616664881
2	60849	56.6	950.58505564858
2	60852	56.61	950.72394464835
2	60853	56.62	950.86283364812
2	60872	56.63	951.00172264789
2	60873	56.64	951.14061164766
2	60874	56.65	951.27950064743
2	60893	56.66	951.4183896472
2	60894	56.67	951.55727864697
2	60895	56.68	951.69616764674
2	60896	56.69	951.83505664651
2	60897	56.7	951.97394564628
2	60900	56.71	952.11283464605
2	60901	56.72	952.25172364582
2	60920	56.73	952.3906126456
2	60921	56.74	952.52950164537
2	60922	56.75	952.66839064514
2	60941	56.76	952.80727964491
2	60942	56.77	952.94616864469
2	60943	56.78	953.08505764446
2	60944	56.79	953.22394664424
2	60945	56.8	953.36283564401
2	60948	56.81	953.50172464379
2	60949	56.82	953.64061364356
2	60968	56.83	953.77950264334
2	60969	56.84	953.91839164312
2	60970	56.85	954.05728064289
2	60989	56.86	954.19616964267
2	60990	56.87	954.33505864245
2	60991	56.88	954.47394764222
2	60992	56.89	954.612836642
2	60993	56.9	954.75172564178
2	60996	56.91	954.89061464156
2	60997	56.92	955.02950364134
2	61016	56.93	955.16839264112
2	61017	56.94	955.3072816409
2	61018	56.95	955.44617064068
2	61037	56.96	955.58505964046
2	61038	56.97	955.72394864024
2	61039	56.98	955.86283764002
2	61040	56.99	956.0017266398
2	61043	57	956.14061563958
2	61046	57.01	956.27950463937
2	61047	57.02	956.41839363915
2	61066	57.03	956.55728263893
2	61067	57.04	956.69617163871
2	61068	57.05	956.8350606385
2	61087	57.06	956.97394963828
2	61088	57.07	957.11283863806
2	61089	57.08	957.25172763785
2	61090	57.09	957.39061663763
2	61091	57.1	957.52950563742
2	61094	57.11	957.66839463721
2	61095	57.12	957.80728363699
2	61114	57.13	957.94617263678
2	61115	57.14	958.08506163656
2	61116	57.15	958.22395063635
2	61135	57.16	958.36283963614
2	61136	57.17	958.50172863593
2	61137	57.18	958.64061763571
2	61138	57.19	958.7795066355
2	61139	57.2	958.91839563529
2	61142	57.21	959.05728463508
2	61143	57.22	959.19617363487
2	61162	57.23	959.33506263466
2	61163	57.24	959.47395163445
2	61164	57.25	959.61284063424
2	61183	57.26	959.75172963403
2	61184	57.27	959.89061863382
2	61185	57.28	960.02950763361
2	61186	57.29	960.1683966334
2	61187	57.3	960.30728563319
2	61190	57.31	960.44617463299
2	61191	57.32	960.58506363278
2	61210	57.33	960.72395263257
2	61211	57.34	960.86284163236
2	61212	57.35	961.00173063216
2	61231	57.36	961.14061963195
2	61232	57.37	961.27950863174
2	61233	57.38	961.41839763154
2	61234	57.39	961.55728663133
2	61235	57.4	961.69617563113
2	61238	57.41	961.83506463092
2	61239	57.42	961.97395363072
2	61258	57.43	962.11284263052
2	61259	57.44	962.25173163031
2	61260	57.45	962.39062063011
2	61279	57.46	962.52950962991
2	61280	57.47	962.6683986297
2	61281	57.48	962.8072876295
2	61282	57.49	962.9461766293
2	61283	57.5	963.0850656291
2	61286	57.51	963.22395462889
2	61287	57.52	963.36284362869
2	61306	57.53	963.50173262849
2	61307	57.54	963.64062162829
2	61308	57.55	963.77951062809
2	61327	57.56	963.91839962789
2	61328	57.57	964.05728862769
2	61329	57.58	964.19617762749
2	61330	57.59	964.33506662729
2	61331	57.6	964.4739556271
2	61334	57.61	964.6128446269
2	61335	57.62	964.7517336267
2	61354	57.63	964.8906226265
2	61355	57.64	965.0295116263
2	61356	57.65	965.16840062611
2	61375	57.66	965.30728962591
2	61376	57.67	965.44617862571
2	61377	57.68	965.58506762552
2	61378	57.69	965.72395662532
2	61379	57.7	965.86284562513
2	61382	57.71	966.00173462493
2	61383	57.72	966.14062362474
2	61402	57.73	966.27951262454
2	61403	57.74	966.41840162435
2	61404	57.75	966.55729062415
2	61423	57.76	966.69617962396
2	61424	57.77	966.83506862377
2	61425	57.78	966.97395762357
2	61426	57.79	967.11284662338
2	61427	57.8	967.25173562319
2	61430	57.81	967.39062462299
2	61431	57.82	967.5295136228
2	61450	57.83	967.66840262261
2	61451	57.84	967.80729162242
2	61452	57.85	967.94618062223
2	61471	57.86	968.08506962204
2	61472	57.87	968.22395862185
2	61473	57.88	968.36284762166
2	61474	57.89	968.50173662147
2	61475	57.9	968.64062562128
2	61478	57.91	968.77951462109
2	61479	57.92	968.9184036209
2	61498	57.93	969.05729262071
2	61499	57.94	969.19618162052
2	61500	57.95	969.33507062033
2	61519	57.96	969.47395962015
2	61520	57.97	969.61284861996
2	61521	57.98	969.75173761977
2	61522	57.99	969.89062661958
2	61525	58	970.0295156194
2	61528	58.01	970.16840461921
2	61529	58.02	970.30729361903
2	61548	58.03	970.44618261884
2	61549	58.04	970.58507161865
2	61550	58.05	970.72396061847
2	61569	58.06	970.86284961828
2	61570	58.07	971.0017386181
2	61571	58.08	971.14062761791
2	61572	58.09	971.27951661773
2	61573	58.1	971.41840561755
2	61576	58.11	971.55729461736
2	61577	58.12	971.69618361718
2	61596	58.13	971.835072617
2	61597	58.14	971.97396161681
2	61598	58.15	972.11285061663
2	61617	58.16	972.25173961645
2	61618	58.17	972.39062861627
2	61619	58.18	972.52951761609
2	61620	58.19	972.66840661591
2	61621	58.2	972.80729561573
2	61624	58.21	972.94618461554
2	61625	58.22	973.08507361536
2	61644	58.23	973.22396261518
2	61645	58.24	973.362851615
2	61646	58.25	973.50174061482
2	61665	58.26	973.64062961465
2	61666	58.27	973.77951861447
2	61667	58.28	973.91840761429
2	61668	58.29	974.05729661411
2	61669	58.3	974.19618561393
2	61672	58.31	974.33507461375
2	61673	58.32	974.47396361358
2	61692	58.33	974.6128526134
2	61693	58.34	974.75174161322
2	61694	58.35	974.89063061304
2	61713	58.36	975.02951961287
2	61714	58.37	975.16840861269
2	61715	58.38	975.30729761252
2	61716	58.39	975.44618661234
2	61717	58.4	975.58507561217
2	61720	58.41	975.72396461199
2	61721	58.42	975.86285361182
2	61740	58.43	976.00174261164
2	61741	58.44	976.14063161147
2	61742	58.45	976.27952061129
2	61761	58.46	976.41840961112
2	61762	58.47	976.55729861095
2	61763	58.48	976.69618761077
2	61764	58.49	976.8350766106
2	61765	58.5	976.97396561043
2	61768	58.51	977.11285461025
2	61769	58.52	977.25174361008
2	61788	58.53	977.39063260991
2	61789	58.54	977.52952160974
2	61790	58.55	977.66841060957
2	61809	58.56	977.8072996094
2	61810	58.57	977.94618860923
2	61811	58.58	978.08507760906
2	61812	58.59	978.22396660889
2	61813	58.6	978.36285560872
2	61816	58.61	978.50174460855
2	61817	58.62	978.64063360838
2	61836	58.63	978.77952260821
2	61837	58.64	978.91841160804
2	61838	58.65	979.05730060787
2	61857	58.66	979.1961896077
2	61858	58.67	979.33507860753
2	61859	58.68	979.47396760736
2	61860	58.69	979.6128566072
2	61861	58.7	979.75174560703
2	61864	58.71	979.89063460686
2	61865	58.72	980.0295236067
2	61884	58.73	980.16841260653
2	61885	58.74	980.30730160636
2	61886	58.75	980.4461906062
2	61905	58.76	980.58507960603
2	61906	58.77	980.72396860587
2	61907	58.78	980.8628576057
2	61908	58.79	981.00174660554
2	61909	58.8	981.14063560537
2	61912	58.81	981.27952460521
2	61913	58.82	981.41841360504
2	61932	58.83	981.55730260488
2	61933	58.84	981.69619160471
2	61934	58.85	981.83508060455
2	61953	58.86	981.97396960439
2	61954	58.87	982.11285860422
2	61955	58.88	982.25174760406
2	61956	58.89	982.3906366039
2	61957	58.9	982.52952560374
2	61960	58.91	982.66841460358
2	61961	58.92	982.80730360341
2	61980	58.93	982.94619260325
2	61981	58.94	983.08508160309
2	61982	58.95	983.22397060293
2	62001	58.96	983.36285960277
2	62002	58.97	983.50174860261
2	62003	58.98	983.64063760245
2	62004	58.99	983.77952660229
2	62007	59	983.91841560213
2	62010	59.01	984.05730460197
2	62011	59.02	984.19619360181
2	62030	59.03	984.33508260165
2	62031	59.04	984.47397160149
2	62032	59.05	984.61286060133
2	62051	59.06	984.75174960118
2	62052	59.07	984.89063860102
2	62053	59.08	985.02952760086
2	62054	59.09	985.1684166007
2	62055	59.1	985.30730560055
2	62058	59.11	985.44619460039
2	62059	59.12	985.58508360023
2	62078	59.13	985.72397260008
2	62079	59.14	985.86286159992
2	62080	59.15	986.00175059976
2	62099	59.16	986.14063959961
2	62100	59.17	986.27952859945
2	62101	59.18	986.4184175993
2	62102	59.19	986.55730659914
2	62103	59.2	986.69619559899
2	62106	59.21	986.83508459883
2	62107	59.22	986.97397359868
2	62126	59.23	987.11286259852
2	62127	59.24	987.25175159837
2	62128	59.25	987.39064059822
2	62147	59.26	987.52952959806
2	62148	59.27	987.66841859791
2	62149	59.28	987.80730759776
2	62150	59.29	987.94619659761
2	62151	59.3	988.08508559745
2	62154	59.31	988.2239745973
2	62155	59.32	988.36286359715
2	62174	59.33	988.501752597
2	62175	59.34	988.64064159685
2	62176	59.35	988.77953059669
2	62195	59.36	988.91841959654
2	62196	59.37	989.05730859639
2	62197	59.38	989.19619759624
2	62198	59.39	989.33508659609
2	62199	59.4	989.47397559594
2	62202	59.41	989.61286459579
2	62203	59.42	989.75175359564
2	62222	59.43	989.89064259549
2	62223	59.44	990.02953159534
2	62224	59.45	990.1684205952
2	62243	59.46	990.30730959505
2	62244	59.47	990.4461985949
2	62245	59.48	990.58508759475
2	62246	59.49	990.7239765946
2	62247	59.5	990.86286559446
2	62250	59.51	991.00175459431
2	62251	59.52	991.14064359416
2	62270	59.53	991.27953259401
2	62271	59.54	991.41842159387
2	62272	59.55	991.55731059372
2	62291	59.56	991.69619959357
2	62292	59.57	991.83508859343
2	62293	59.58	991.97397759328
2	62294	59.59	992.11286659314
2	62295	59.6	992.25175559299
2	62298	59.61	992.39064459285
2	62299	59.62	992.5295335927
2	62318	59.63	992.66842259256
2	62319	59.64	992.80731159241
2	62320	59.65	992.94620059227
2	62339	59.66	993.08508959212
2	62340	59.67	993.22397859198
2	62341	59.68	993.36286759183
2	62342	59.69	993.50175659169
2	62343	59.7	993.64064559155
2	62346	59.71	993.77953459141
2	62347	59.72	993.91842359126
2	62366	59.73	994.05731259112
2	62367	59.74	994.19620159098
2	62368	59.75	994.33509059084
2	62387	59.76	994.47397959069
2	62388	59.77	994.61286859055
2	62389	59.78	994.75175759041
2	62390	59.79	994.89064659027
2	62391	59.8	995.02953559013
2	62394	59.81	995.16842458999
2	62395	59.82	995.30731358985
2	62414	59.83	995.44620258971
2	62415	59.84	995.58509158957
2	62416	59.85	995.72398058943
2	62435	59.86	995.86286958929
2	62436	59.87	996.00175858915
2	62437	59.88	996.14064758901
2	62438	59.89	996.27953658887
2	62439	59.9	996.41842558873
2	62442	59.91	996.55731458859
2	62443	59.92	996.69620358845
2	62462	59.93	996.83509258832
2	62463	59.94	996.97398158818
2	62464	59.95	997.11287058804
2	62483	59.96	997.2517595879
2	62484	59.97	997.39064858777
2	62485	59.98	997.52953758763
2	62486	59.99	997.66842658749
2	62489	60	997.80731558736
2	62492	60.01	997.94620458722
2	62493	60.02	998.08509358708
2	62512	60.03	998.22398258695
2	62513	60.04	998.36287158681
2	62514	60.05	998.50176058668
2	62533	60.06	998.64064958654
2	62534	60.07	998.77953858641
2	62535	60.08	998.91842758627
2	62536	60.09	999.05731658614
2	62537	60.1	999.196205586
2	62540	60.11	999.33509458587
2	62541	60.12	999.47398358573
2	62560	60.13	999.6128725856
2	62561	60.14	999.75176158547
2	62562	60.15	999.89065058533
2	62581	60.16	1000.0295395852
2	62582	60.17	1000.1684285851
2	62583	60.18	1000.3073175849
2	62584	60.19	1000.4462065848
2	62585	60.2	1000.5850955847
2	62588	60.21	1000.7239845845
2	62589	60.22	1000.8628735844
2	62608	60.23	1001.0017625843
2	62609	60.24	1001.1406515841
2	62610	60.25	1001.279540584
2	62629	60.26	1001.4184295839
2	62630	60.27	1001.5573185837
2	62631	60.28	1001.6962075836
2	62632	60.29	1001.8350965835
2	62633	60.3	1001.9739855834
2	62636	60.31	1002.1128745832
2	62637	60.32	1002.2517635831
2	62656	60.33	1002.390652583
2	62657	60.34	1002.5295415828
2	62658	60.35	1002.6684305827
2	62677	60.36	1002.8073195826
2	62678	60.37	1002.9462085824
2	62679	60.38	1003.0850975823
2	62680	60.39	1003.2239865822
2	62681	60.4	1003.3628755821
2	62684	60.41	1003.5017645819
2	62685	60.42	1003.6406535818
2	62704	60.43	1003.7795425817
2	62705	60.44	1003.9184315816
2	62706	60.45	1004.0573205814
2	62725	60.46	1004.1962095813
2	62726	60.47	1004.3350985812
2	62727	60.48	1004.473987581
2	62728	60.49	1004.6128765809
2	62729	60.5	1004.7517655808
2	62732	60.51	1004.8906545807
2	62733	60.52	1005.0295435805
2	62752	60.53	1005.1684325804
2	62753	60.54	1005.3073215803
2	62754	60.55	1005.4462105802
2	62773	60.56	1005.58509958
2	62774	60.57	1005.7239885799
2	62775	60.58	1005.8628775798
2	62776	60.59	1006.0017665797
2	62777	60.6	1006.1406555795
2	62780	60.61	1006.2795445794
2	62781	60.62	1006.4184335793
2	62800	60.63	1006.5573225792
2	62801	60.64	1006.696211579
2	62802	60.65	1006.8351005789
2	62821	60.66	1006.9739895788
2	62822	60.67	1007.1128785787
2	62823	60.68	1007.2517675786
2	62824	60.69	1007.3906565784
2	62825	60.7	1007.5295455783
2	62828	60.71	1007.6684345782
2	62829	60.72	1007.8073235781
2	62848	60.73	1007.9462125779
2	62849	60.74	1008.0851015778
2	62850	60.75	1008.2239905777
2	62869	60.76	1008.3628795776
2	62870	60.77	1008.5017685775
2	62871	60.78	1008.6406575773
2	62872	60.79	1008.7795465772
2	62873	60.8	1008.9184355771
2	62876	60.81	1009.057324577
2	62877	60.82	1009.1962135769
2	62896	60.83	1009.3351025767
2	62897	60.84	1009.4739915766
2	62898	60.85	1009.6128805765
2	62917	60.86	1009.7517695764
2	62918	60.87	1009.8906585763
2	62919	60.88	1010.0295475761
2	62920	60.89	1010.168436576
2	62921	60.9	1010.3073255759
2	62924	60.91	1010.4462145758
2	62925	60.92	1010.5851035757
2	62944	60.93	1010.7239925755
2	62945	60.94	1010.8628815754
2	62946	60.95	1011.0017705753
2	62965	60.96	1011.1406595752
2	62966	60.97	1011.2795485751
2	62967	60.98	1011.418437575
2	62968	60.99	1011.5573265748
2	62971	61	1011.6962155747
2	62974	61.01	1011.8351045746
2	62975	61.02	1011.9739935745
2	62994	61.03	1012.1128825744
2	62995	61.04	1012.2517715743
2	62996	61.05	1012.3906605741
2	63015	61.06	1012.529549574
2	63016	61.07	1012.6684385739
2	63017	61.08	1012.8073275738
2	63018	61.09	1012.9462165737
2	63019	61.1	1013.0851055736
2	63022	61.11	1013.2239945734
2	63023	61.12	1013.3628835733
2	63042	61.13	1013.5017725732
2	63043	61.14	1013.6406615731
2	63044	61.15	1013.779550573
2	63063	61.16	1013.9184395729
2	63064	61.17	1014.0573285728
2	63065	61.18	1014.1962175726
2	63066	61.19	1014.3351065725
2	63067	61.2	1014.4739955724
2	63070	61.21	1014.6128845723
2	63071	61.22	1014.7517735722
2	63090	61.23	1014.8906625721
2	63091	61.24	1015.029551572
2	63092	61.25	1015.1684405719
2	63111	61.26	1015.3073295717
2	63112	61.27	1015.4462185716
2	63113	61.28	1015.5851075715
2	63114	61.29	1015.7239965714
2	63115	61.3	1015.8628855713
2	63118	61.31	1016.0017745712
2	63119	61.32	1016.1406660221
2	63130	61.33	1016.2795647778
2	63131	61.34	1016.4184755972
2	63132	61.35	1016.5574031456
2	63133	61.36	1016.6963519969
2	63134	61.37	1016.8353266355
2	63135	61.38	1016.9743314577
2	63136	61.39	1017.1133707735
2	63137	61.4	1017.2524488086
2	63139	61.41	1017.3915697058
2	63140	61.42	1017.5307375265
2	63151	61.43	1017.6699562528
2	63152	61.44	1017.8092297883
2	63153	61.45	1017.9485619604
2	63154	61.46	1018.0879565212
2	63155	61.47	1018.2274171495
2	63156	61.48	1018.3669474518
2	63157	61.49	1018.5065509638
2	63158	61.5	1018.646231152
2	63160	61.51	1018.785991415
2	63161	61.52	1018.9258350845
2	63172	61.53	1019.0657654273
2	63173	61.54	1019.2057856456
2	63174	61.55	1019.3458988793
2	63175	61.56	1019.4861082064
2	63176	61.57	1019.6264166448
2	63177	61.58	1019.766827153
2	63178	61.59	1019.9073426316
2	63179	61.6	1020.0479659244
2	63181	61.61	1020.1886998192
2	63182	61.62	1020.3295470495
2	63193	61.63	1020.4705102949
2	63194	61.64	1020.6115921824
2	63195	61.65	1020.7527952879
2	63196	61.66	1020.8941221364
2	63197	61.67	1021.0355752036
2	63198	61.68	1021.1771569165
2	63199	61.69	1021.3188696547
2	63200	61.7	1021.4607157509
2	63202	61.71	1021.6026974923
2	63203	61.72	1021.7448171211
2	63214	61.73	1021.8870768356
2	63215	61.74	1022.029478791
2	63216	61.75	1022.1720251002
2	63217	61.76	1022.3147178347
2	63218	61.77	1022.4575590254
2	63219	61.78	1022.6005506634
2	63220	61.79	1022.7436947006
2	63221	61.8	1022.8869930508
2	63223	61.81	1023.0304475902
2	63224	61.82	1023.1740601582
2	63235	61.83	1023.3178325583
2	63236	61.84	1023.4617665583
2	63237	61.85	1023.6058638917
2	63238	61.86	1023.7501262577
2	63239	61.87	1023.8945553225
2	63240	61.88	1024.0391527193
2	63241	61.89	1024.1839200495
2	63242	61.9	1024.328858883
2	63244	61.91	1024.473970759
2	63245	61.92	1024.6192571865
2	63256	61.93	1024.7647196448

