version 3
run OvertakeNoGui-398-20241104-10:10:21-93792
attr configname OvertakeNoGui
attr datetime 20241104-10:10:21
attr datetimef 20241104-101021
attr experiment OvertakeNoGui
attr inifile omnetpp.ini
attr iterationvars "$leaderHeadway=1.2, $leaderSpeed=50, $controller=0, $pCSpeed=63, $pDeltaC=510"
attr iterationvarsd leaderHeadway=1.2/leaderSpeed=50/controller=0/pCSpeed=63/pDeltaC=510
attr iterationvarsf leaderHeadway=1.2,leaderSpeed=50,controller=0,pCSpeed=63,pDeltaC=510-
attr measurement "$leaderHeadway=1.2, $leaderSpeed=50, $controller=0, $pCSpeed=63, $pDeltaC=510"
attr network Overtake
attr processid 93792
attr repetition 0
attr replication #0
attr resultdir results
attr runnumber 398
attr seedset 0
itervar controller 0
itervar leaderHeadway 1.2
itervar leaderSpeed 50
itervar pCSpeed 63
itervar pDeltaC 510
config image-path ../../../../veins/images;../../images
config *.manager.command "\"sumo\""
config *.manager.ignoreGuiCommands true
config *.node[*].scenario_type "\"OvertakeScenario\""
config output-vector-file results/OvertakeNoGui_63_510_0.vec
config output-scalar-file results/OvertakeNoGui_63_510_0.sca
config cmdenv-express-mode false
config cmdenv-autoflush true
config cmdenv-status-frequency 10s
config num-rngs 6
config cmdenv-output-file log.txt
config cmdenv-redirect-output true
config network Overtake
config debug-on-errors true
config print-undisposed true
config *.playgroundSizeX 65000m
config *.playgroundSizeY 25000m
config *.playgroundSizeZ 50m
config sim-time-limit "360 s"
config *.annotations.draw false
config *.obstacles.debug false
config *.world.useTorus false
config *.world.use2D false
config *.manager.updateInterval 0.01s
config *.manager.host "\"localhost\""
config *.manager.moduleType "\"vtypeauto=org.car2x.plexe.PlatoonCar vtypehuman=0\""
config *.manager.moduleName "\"vtypeauto=node vtypehuman=0\""
config *.manager.moduleDisplayString "\"\""
config *.manager.autoShutdown true
config *.manager.margin 25
config *.manager.order -1
config *.connectionManager.sendDirect true
config *.connectionManager.maxInterfDist 2600m
config *.connectionManager.drawMaxIntfDist false
config *.**.nic.mac1609_4.useServiceChannel false
config *.**.nic.mac1609_4.txPower 100mW
config *.**.nic.mac1609_4.bitrate 6Mbps
config *.**.nic.mac1609_4.useAcks true
config *.**.nic.mac1609_4.ackErrorRate 0.0
config *.**.nic.mac1609_4.frameErrorRate 0.0
config *.**.nic.phy80211p.minPowerLevel -94dBm
config *.**.nic.phy80211p.maxTXPower 100mW
config *.**.nic.phy80211p.useNoiseFloor true
config *.**.nic.phy80211p.noiseFloor -95dBm
config *.**.nic.phy80211p.decider "xmldoc(\"config.xml\")"
config *.**.nic.phy80211p.analogueModels "xmldoc(\"config.xml\")"
config *.**.nic.phy80211p.usePropagationDelay true
config *.node[*].mobility.x 0
config *.node[*].mobility.y 0
config *.node[*].mobility.z 1.895
config *.shockwave[*].mobility.x 0
config *.shockwave[*].mobility.y 0
config *.shockwave[*].mobility.z 1.895
config seed-set 0
config **.seed 0
config *.node[*].prot.rng-0 2
config *.node[*].appl.rng-0 3
config *.node[*].scenario.rng-0 4
config *.manager.configFile "\"./sumocfg/overtake.sumo.cfg\""
config *.manager.launchConfig "xmldoc(\"./sumocfg/overtake.launchd.xml\")"
config *.node[*].helper_type "\"PositionHelper\""
config *.node[*].scenario.caccC1 0.5
config *.node[*].scenario.caccXi 1
config *.node[*].scenario.caccOmegaN "0.2 Hz"
config *.node[*].scenario.caccSpacing "5 m"
config *.node[*].scenario.engineTau "0.5 s"
config *.node[*].scenario.ploegH "0.5 s"
config *.node[*].scenario.ploegKp 0.2
config *.node[*].scenario.ploegKd 0.7
config *.node[*].scenario.useRealisticEngine false
config *.node[*].scenario.targetController "\"CACC\""
config *.node[*].scenario.accHeadway "0.1 s"
config *.node[*].scenario.leaderHeadway "1.2 s"
config *.node[*].scenario.leaderSpeed "50 kmph"
config *.node[*].appl_type "\"OvertakeApp\""
config *.node[*].appl.*.scalar-recording true
config *.node[*].appl.*.vector-recording true
config *.node[*].appl.overtakeManeuver "\"OvertakeManeuver\""
config *.node[*].protocol_type "\"SimplePlatooningBeaconing\""
config *.node[*].prot.*.scalar-recording true
config *.node[*].prot.*.vector-recording true
config *.node[*].prot.beaconingInterval "0.1 s"
config *.node[*].prot.priority 4
config *.node[*].prot.packetSize 200
config *.node[*].prot.useControllerAcceleration true
config **.traffic_type "\"OvertakeTrafficManager\""
config **.traffic.platoonInsertTime "0.1 s"
config **.traffic.platooningVType "\"vtypeauto\""
config **.numericController 0
config **.traffic.platoonInsertDistance 5m
config **.traffic.platoonInsertHeadway 0s
config **.traffic.platoonLeaderHeadway 1.2s
config **.traffic.platoonASpeed 50kmph
config **.traffic.platoonBSpeed 100kmph
config **.traffic.platoonCSpeed 63kmph
config **.traffic.platoonSizeA 2
config **.traffic.platoonSizeB 1
config **.traffic.platoonSizeC 1
config **.traffic.initialPositionDeltaA 150
config **.traffic.initialPositionDeltaB 50
config **.traffic.initialPositionDeltaC 510
config **.traffic.controller "\"CACC\""
config **.scalar-recording true
config **.vector-recording true

vector 0 Overtake.node[0].mobility posx ETV
vector 1 Overtake.node[0].mobility posy ETV
vector 2 Overtake.node[1].mobility posx ETV
vector 3 Overtake.node[1].mobility posy ETV
vector 4 Overtake.node[2].mobility posx ETV
vector 5 Overtake.node[2].mobility posy ETV
vector 6 Overtake.node[3].mobility posx ETV
vector 7 Overtake.node[3].mobility posy ETV
vector 8 Overtake.node[0].mobility speed ETV
vector 9 Overtake.node[1].mobility speed ETV
vector 10 Overtake.node[2].mobility speed ETV
vector 11 Overtake.node[3].mobility speed ETV
vector 12 Overtake.node[0].mobility acceleration ETV
vector 13 Overtake.node[0].mobility co2emission ETV
vector 14 Overtake.node[1].mobility acceleration ETV
vector 15 Overtake.node[1].mobility co2emission ETV
vector 16 Overtake.node[2].mobility acceleration ETV
vector 17 Overtake.node[2].mobility co2emission ETV
vector 18 Overtake.node[3].mobility acceleration ETV
vector 19 Overtake.node[3].mobility co2emission ETV
vector 20 Overtake.node[0].appl distance ETV
vector 21 Overtake.node[0].appl relativeSpeed ETV
vector 22 Overtake.node[0].appl nodeId ETV
vector 23 Overtake.node[0].appl acceleration ETV
vector 24 Overtake.node[0].appl controllerAcceleration ETV
vector 25 Overtake.node[0].appl speed ETV
vector 26 Overtake.node[0].appl posx ETV
vector 27 Overtake.node[0].appl posy ETV
vector 28 Overtake.node[1].appl distance ETV
vector 29 Overtake.node[1].appl relativeSpeed ETV
vector 30 Overtake.node[1].appl nodeId ETV
vector 31 Overtake.node[1].appl acceleration ETV
vector 32 Overtake.node[1].appl controllerAcceleration ETV
vector 33 Overtake.node[1].appl speed ETV
vector 34 Overtake.node[1].appl posx ETV
vector 35 Overtake.node[1].appl posy ETV
vector 36 Overtake.node[2].appl distance ETV
vector 37 Overtake.node[2].appl relativeSpeed ETV
vector 38 Overtake.node[2].appl nodeId ETV
vector 39 Overtake.node[2].appl acceleration ETV
vector 40 Overtake.node[2].appl controllerAcceleration ETV
vector 41 Overtake.node[2].appl speed ETV
vector 42 Overtake.node[2].appl posx ETV
vector 43 Overtake.node[2].appl posy ETV
vector 44 Overtake.node[3].appl distance ETV
vector 45 Overtake.node[3].appl relativeSpeed ETV
vector 46 Overtake.node[3].appl nodeId ETV
vector 47 Overtake.node[3].appl acceleration ETV
vector 48 Overtake.node[3].appl controllerAcceleration ETV
vector 49 Overtake.node[3].appl speed ETV
vector 50 Overtake.node[3].appl posx ETV
vector 51 Overtake.node[3].appl posy ETV
vector 52 Overtake.node[1].prot leaderDelay ETV
vector 53 Overtake.node[1].prot leaderDelayId ETV
vector 54 Overtake.node[1].prot frontDelay ETV
vector 55 Overtake.node[1].prot frontDelayId ETV
vector 56 Overtake.node[0].prot nodeId ETV
vector 57 Overtake.node[0].prot busyTime ETV
vector 58 Overtake.node[0].prot collisions ETV
vector 59 Overtake.node[1].prot nodeId ETV
vector 60 Overtake.node[1].prot busyTime ETV
vector 61 Overtake.node[1].prot collisions ETV
vector 62 Overtake.node[2].prot nodeId ETV
vector 63 Overtake.node[2].prot busyTime ETV
vector 64 Overtake.node[2].prot collisions ETV
vector 65 Overtake.node[3].prot nodeId ETV
vector 66 Overtake.node[3].prot busyTime ETV
vector 67 Overtake.node[3].prot collisions ETV
48	26	0.21	0
48	176	0.31	0
48	326	0.41	0
48	476	0.51	0
48	626	0.61	0
48	776	0.71	0
48	926	0.81	0
48	1076	0.91	0
48	1230	1.01	0
48	1381	1.11	0
48	1532	1.21	0
48	1683	1.31	0
48	2046	1.41	0
48	2196	1.51	0
48	2346	1.61	0
48	2496	1.71	0
48	2646	1.81	0
48	2796	1.91	0
48	2950	2.01	0
48	3100	2.11	0
48	3250	2.21	0
48	3400	2.31	0
48	3763	2.41	0
48	3914	2.51	0
48	4064	2.61	0
48	4214	2.71	0
48	4364	2.81	0
48	4514	2.91	0
48	4668	3.01	0
48	4818	3.11	0
48	4968	3.21	0
48	5118	3.31	0
48	5269	3.41	0
48	5676	3.51	0
48	5826	3.61	0
48	5976	3.71	0
48	6126	3.81	0
48	6276	3.91	0
48	6430	4.01	0
48	6580	4.11	0
48	6730	4.21	0
48	6880	4.31	0
48	7030	4.41	0
48	7393	4.51	0
48	7544	4.61	0
48	7694	4.71	0
48	7844	4.81	0
48	7994	4.91	0
48	8148	5.01	0
48	8298	5.11	0
48	8448	5.21	0
48	8598	5.31	0
48	8748	5.41	0
48	8899	5.51	0
48	9262	5.61	0
48	9412	5.71	0
48	9562	5.81	0
48	9712	5.91	0
48	9866	6.01	0
48	10016	6.11	0
48	10166	6.21	0
48	10316	6.31	0
48	10466	6.41	0
48	10616	6.51	0
48	11023	6.61	0
48	11174	6.71	0
48	11324	6.81	0
48	11474	6.91	0
48	11628	7.01	0
48	11778	7.11	0
48	11928	7.21	0
48	12078	7.31	0
48	12228	7.41	0
48	12378	7.51	0
48	12529	7.61	0
48	12892	7.71	0
48	13042	7.81	0
48	13192	7.91	0
48	13346	8.01	0
48	13496	8.11	0
48	13646	8.21	0
48	13796	8.31	0
48	13946	8.41	0
48	14096	8.51	0
48	14246	8.61	0
48	14609	8.71	0
48	14760	8.81	0
48	14910	8.91	0
48	15064	9.01	0
48	15214	9.11	0
48	15364	9.21	0
48	15514	9.31	0
48	15664	9.41	0
48	15814	9.51	0
48	15964	9.61	0
48	16115	9.71	0
48	16522	9.81	0
48	16672	9.91	0
48	16826	10.01	0
48	16976	10.11	0
48	17126	10.21	0
48	17276	10.31	0
48	17426	10.41	0
48	17576	10.51	0
48	17726	10.61	0
48	17876	10.71	0
48	18239	10.81	0
48	18390	10.91	0
48	18544	11.01	0
48	18694	11.11	0
48	18844	11.21	0
48	18994	11.31	0
48	19144	11.41	0
48	19294	11.51	0
48	19444	11.61	0
48	19594	11.71	0
48	19745	11.81	0
48	20108	11.91	0
48	20262	12.01	0
48	20412	12.11	0
48	20562	12.21	0
48	20712	12.31	0
48	20862	12.41	0
48	21012	12.51	0
48	21162	12.61	0
48	21312	12.71	0
48	21462	12.81	0
48	21845	12.91	0
48	22000	13.01	0
48	22150	13.11	0
48	22300	13.21	0
48	22450	13.31	0
48	22600	13.41	0
48	22750	13.51	0
48	22900	13.61	0
48	23050	13.71	0
48	23200	13.81	0
48	23350	13.91	0
48	23504	14.01	0
48	23654	14.11	0
48	23804	14.21	0
48	23954	14.31	0
48	24104	14.41	0
48	24254	14.51	0
48	24404	14.61	0
48	24554	14.71	0
48	24704	14.81	0
48	24854	14.91	0
48	25008	15.01	0
48	25158	15.11	0
48	25308	15.21	0
48	25458	15.31	0
48	25608	15.41	0
48	25758	15.51	0
48	25908	15.61	0
48	26058	15.71	0
48	26208	15.81	0
48	26358	15.91	0
48	26512	16.01	0
48	26662	16.11	0
48	26812	16.21	0
48	26962	16.31	0
48	27112	16.41	0
48	27262	16.51	0
48	27412	16.61	0
48	27562	16.71	0
48	27712	16.81	0
48	27862	16.91	0
48	28016	17.01	0
48	28166	17.11	0
48	28316	17.21	0
48	28466	17.31	0
48	28616	17.41	0
48	28766	17.51	0
48	28916	17.61	0
48	29066	17.71	0
48	29216	17.81	0
48	29366	17.91	0
48	29520	18.01	0
48	29670	18.11	0
48	29820	18.21	0
48	29970	18.31	0
48	30120	18.41	0
48	30270	18.51	0
48	30420	18.61	0
48	30570	18.71	0
48	30720	18.81	0
48	30870	18.91	0
48	31024	19.01	0
48	31174	19.11	0
48	31324	19.21	0
48	31474	19.31	0
48	31624	19.41	0
48	31774	19.51	0
48	31924	19.61	0
48	32074	19.71	0
48	32224	19.81	0
48	32374	19.91	0
48	32528	20.01	0
48	32678	20.11	0
48	32828	20.21	0
48	32978	20.31	0
48	33128	20.41	0
48	33278	20.51	0
48	33428	20.61	0
48	33578	20.71	0
48	33728	20.81	0
48	33878	20.91	0
48	34032	21.01	0
48	34182	21.11	0
48	34332	21.21	0
48	34482	21.31	0
48	34632	21.41	0
48	34782	21.51	0
48	34932	21.61	0
48	35082	21.71	0
48	35232	21.81	0
48	35382	21.91	0
48	35536	22.01	0
48	35686	22.11	0
48	35836	22.21	0
48	35986	22.31	0
48	36136	22.41	0
48	36286	22.51	0
48	36436	22.61	0
48	36586	22.71	0
48	36736	22.81	0
48	36886	22.91	0
48	37040	23.01	0
48	37190	23.11	0
48	37340	23.21	0
48	37490	23.31	0
48	37640	23.41	0
48	37790	23.51	0
48	37940	23.61	0
48	38090	23.71	0
48	38240	23.81	0
48	38390	23.91	0
48	38544	24.01	0
48	38694	24.11	0
48	38844	24.21	0
48	38994	24.31	0
48	39144	24.41	0
48	39294	24.51	0
48	39444	24.61	0
48	39595	24.71	0
48	39745	24.81	0
48	39895	24.91	0
48	40049	25.01	0
48	40199	25.11	0
48	40349	25.21	0
48	40499	25.31	0
48	40649	25.41	0
48	40799	25.51	0
48	40949	25.61	0
48	41099	25.71	0
48	41249	25.81	0
48	41399	25.91	0
48	41553	26.01	0
48	41703	26.11	0
48	41853	26.21	0
48	42003	26.31	0
48	42153	26.41	0
48	42303	26.51	0
48	42453	26.61	0
48	42603	26.71	0
48	42753	26.81	0
48	42903	26.91	0
48	43057	27.01	0
48	43207	27.11	0
48	43357	27.21	0
48	43507	27.31	0
48	43657	27.41	0
48	43807	27.51	0
48	43957	27.61	0
48	44107	27.71	0
48	44257	27.81	0
48	44407	27.91	0
48	44561	28.01	0
48	44711	28.11	0
47	26	0.21	0
47	176	0.31	0
47	326	0.41	0
47	476	0.51	0
47	626	0.61	0
47	776	0.71	0
47	926	0.81	0
47	1076	0.91	0
47	1230	1.01	0
47	1381	1.11	0
47	1532	1.21	0
47	1683	1.31	0
47	2046	1.41	0
47	2196	1.51	0
47	2346	1.61	0
47	2496	1.71	0
47	2646	1.81	0
47	2796	1.91	0
47	2950	2.01	0
47	3100	2.11	0
47	3250	2.21	0
47	3400	2.31	0
47	3763	2.41	0
47	3914	2.51	0
47	4064	2.61	0
47	4214	2.71	0
47	4364	2.81	0
47	4514	2.91	0
47	4668	3.01	0
47	4818	3.11	0
47	4968	3.21	0
47	5118	3.31	0
47	5269	3.41	0
47	5676	3.51	0
47	5826	3.61	0
47	5976	3.71	0
47	6126	3.81	0
47	6276	3.91	0
47	6430	4.01	0
47	6580	4.11	0
47	6730	4.21	0
47	6880	4.31	0
47	7030	4.41	0
47	7393	4.51	0
47	7544	4.61	0
47	7694	4.71	0
47	7844	4.81	0
47	7994	4.91	0
47	8148	5.01	0
47	8298	5.11	0
47	8448	5.21	0
47	8598	5.31	0
47	8748	5.41	0
47	8899	5.51	0
47	9262	5.61	0
47	9412	5.71	0
47	9562	5.81	0
47	9712	5.91	0
47	9866	6.01	0
47	10016	6.11	0
47	10166	6.21	0
47	10316	6.31	0
47	10466	6.41	0
47	10616	6.51	0
47	11023	6.61	0
47	11174	6.71	0
47	11324	6.81	0
47	11474	6.91	0
47	11628	7.01	0
47	11778	7.11	0
47	11928	7.21	0
47	12078	7.31	0
47	12228	7.41	0
47	12378	7.51	0
47	12529	7.61	0
47	12892	7.71	0
47	13042	7.81	0
47	13192	7.91	0
47	13346	8.01	0
47	13496	8.11	0
47	13646	8.21	0
47	13796	8.31	0
47	13946	8.41	0
47	14096	8.51	0
47	14246	8.61	0
47	14609	8.71	0
47	14760	8.81	0
47	14910	8.91	0
47	15064	9.01	0
47	15214	9.11	0
47	15364	9.21	0
47	15514	9.31	0
47	15664	9.41	0
47	15814	9.51	0
47	15964	9.61	0
47	16115	9.71	0
47	16522	9.81	0
47	16672	9.91	0
47	16826	10.01	0
47	16976	10.11	0
47	17126	10.21	0
47	17276	10.31	0
47	17426	10.41	0
47	17576	10.51	0
47	17726	10.61	0
47	17876	10.71	0
47	18239	10.81	0
47	18390	10.91	0
47	18544	11.01	0
47	18694	11.11	0
47	18844	11.21	0
47	18994	11.31	0
47	19144	11.41	0
47	19294	11.51	0
47	19444	11.61	0
47	19594	11.71	0
47	19745	11.81	0
47	20108	11.91	0
47	20262	12.01	0
47	20412	12.11	0
47	20562	12.21	0
47	20712	12.31	0
47	20862	12.41	0
47	21012	12.51	0
47	21162	12.61	0
47	21312	12.71	0
47	21462	12.81	0
47	21845	12.91	0
47	22000	13.01	0
47	22150	13.11	0
47	22300	13.21	0
47	22450	13.31	0
47	22600	13.41	0
47	22750	13.51	0
47	22900	13.61	0
47	23050	13.71	0
47	23200	13.81	0
47	23350	13.91	0
47	23504	14.01	0
47	23654	14.11	0
47	23804	14.21	0
47	23954	14.31	0
47	24104	14.41	0
47	24254	14.51	0
47	24404	14.61	0
47	24554	14.71	0
47	24704	14.81	0
47	24854	14.91	0
47	25008	15.01	0
47	25158	15.11	0
47	25308	15.21	0
47	25458	15.31	0
47	25608	15.41	0
47	25758	15.51	0
47	25908	15.61	0
47	26058	15.71	0
47	26208	15.81	0
47	26358	15.91	0
47	26512	16.01	0
47	26662	16.11	0
47	26812	16.21	0
47	26962	16.31	0
47	27112	16.41	0
47	27262	16.51	0
47	27412	16.61	0
47	27562	16.71	0
47	27712	16.81	0
47	27862	16.91	0
47	28016	17.01	0
47	28166	17.11	0
47	28316	17.21	0
47	28466	17.31	0
47	28616	17.41	0
47	28766	17.51	0
47	28916	17.61	0
47	29066	17.71	0
47	29216	17.81	0
47	29366	17.91	0
47	29520	18.01	0
47	29670	18.11	0
47	29820	18.21	0
47	29970	18.31	0
47	30120	18.41	0
47	30270	18.51	0
47	30420	18.61	0
47	30570	18.71	0
47	30720	18.81	0
47	30870	18.91	0
47	31024	19.01	0
47	31174	19.11	0
47	31324	19.21	0
47	31474	19.31	0
47	31624	19.41	0
47	31774	19.51	0
47	31924	19.61	0
47	32074	19.71	0
47	32224	19.81	0
47	32374	19.91	0
47	32528	20.01	0
47	32678	20.11	0
47	32828	20.21	0
47	32978	20.31	0
47	33128	20.41	0
47	33278	20.51	0
47	33428	20.61	0
47	33578	20.71	0
47	33728	20.81	0
47	33878	20.91	0
47	34032	21.01	0
47	34182	21.11	0
47	34332	21.21	0
47	34482	21.31	0
47	34632	21.41	0
47	34782	21.51	0
47	34932	21.61	0
47	35082	21.71	0
47	35232	21.81	0
47	35382	21.91	0
47	35536	22.01	0
47	35686	22.11	0
47	35836	22.21	0
47	35986	22.31	0
47	36136	22.41	0
47	36286	22.51	0
47	36436	22.61	0
47	36586	22.71	0
47	36736	22.81	0
47	36886	22.91	0
47	37040	23.01	0
47	37190	23.11	0
47	37340	23.21	0
47	37490	23.31	0
47	37640	23.41	0
47	37790	23.51	0
47	37940	23.61	0
47	38090	23.71	0
47	38240	23.81	0
47	38390	23.91	0
47	38544	24.01	0
47	38694	24.11	0
47	38844	24.21	0
47	38994	24.31	0
47	39144	24.41	0
47	39294	24.51	0
47	39444	24.61	0
47	39595	24.71	0
47	39745	24.81	0
47	39895	24.91	0
47	40049	25.01	0
47	40199	25.11	0
47	40349	25.21	0
47	40499	25.31	0
47	40649	25.41	0
47	40799	25.51	0
47	40949	25.61	0
47	41099	25.71	0
47	41249	25.81	0
47	41399	25.91	0
47	41553	26.01	0
47	41703	26.11	0
47	41853	26.21	0
47	42003	26.31	0
47	42153	26.41	0
47	42303	26.51	0
47	42453	26.61	0
47	42603	26.71	0
47	42753	26.81	0
47	42903	26.91	0
47	43057	27.01	0
47	43207	27.11	0
47	43357	27.21	0
47	43507	27.31	0
47	43657	27.41	0
47	43807	27.51	0
47	43957	27.61	0
47	44107	27.71	0
47	44257	27.81	0
47	44407	27.91	0
47	44561	28.01	0
47	44711	28.11	0
51	26	0.21	1.6
51	176	0.31	1.6
51	326	0.41	1.6
51	476	0.51	1.6
51	626	0.61	1.6
51	776	0.71	1.6
51	926	0.81	1.6
51	1076	0.91	1.6
51	1230	1.01	1.6
51	1381	1.11	1.6
51	1532	1.21	1.6
51	1683	1.31	1.6
51	2046	1.41	1.6
51	2196	1.51	1.6
51	2346	1.61	1.6
51	2496	1.71	1.6
51	2646	1.81	1.6
51	2796	1.91	1.6
51	2950	2.01	1.6
51	3100	2.11	1.6
51	3250	2.21	1.6
51	3400	2.31	1.6
51	3763	2.41	1.6
51	3914	2.51	1.6
51	4064	2.61	1.6
51	4214	2.71	1.6
51	4364	2.81	1.6
51	4514	2.91	1.6
51	4668	3.01	1.6
51	4818	3.11	1.6
51	4968	3.21	1.6
51	5118	3.31	1.6
51	5269	3.41	1.6
51	5676	3.51	1.6
51	5826	3.61	1.6
51	5976	3.71	1.6
51	6126	3.81	1.6
51	6276	3.91	1.6
51	6430	4.01	1.6
51	6580	4.11	1.6
51	6730	4.21	1.6
51	6880	4.31	1.6
51	7030	4.41	1.6
51	7393	4.51	1.6
51	7544	4.61	1.6
51	7694	4.71	1.6
51	7844	4.81	1.6
51	7994	4.91	1.6
51	8148	5.01	1.6
51	8298	5.11	1.6
51	8448	5.21	1.6
51	8598	5.31	1.6
51	8748	5.41	1.6
51	8899	5.51	1.6
51	9262	5.61	1.6
51	9412	5.71	1.6
51	9562	5.81	1.6
51	9712	5.91	1.6
51	9866	6.01	1.6
51	10016	6.11	1.6
51	10166	6.21	1.6
51	10316	6.31	1.6
51	10466	6.41	1.6
51	10616	6.51	1.6
51	11023	6.61	1.6
51	11174	6.71	1.6
51	11324	6.81	1.6
51	11474	6.91	1.6
51	11628	7.01	1.6
51	11778	7.11	1.6
51	11928	7.21	1.6
51	12078	7.31	1.6
51	12228	7.41	1.6
51	12378	7.51	1.6
51	12529	7.61	1.6
51	12892	7.71	1.6
51	13042	7.81	1.6
51	13192	7.91	1.6
51	13346	8.01	1.6
51	13496	8.11	1.6
51	13646	8.21	1.6
51	13796	8.31	1.6
51	13946	8.41	1.6
51	14096	8.51	1.6
51	14246	8.61	1.6
51	14609	8.71	1.6
51	14760	8.81	1.6
51	14910	8.91	1.6
51	15064	9.01	1.6
51	15214	9.11	1.6
51	15364	9.21	1.6
51	15514	9.31	1.6
51	15664	9.41	1.6
51	15814	9.51	1.6
51	15964	9.61	1.6
51	16115	9.71	1.6
51	16522	9.81	1.6
51	16672	9.91	1.6
51	16826	10.01	1.6
51	16976	10.11	1.6
51	17126	10.21	1.6
51	17276	10.31	1.6
51	17426	10.41	1.6
51	17576	10.51	1.6
51	17726	10.61	1.6
51	17876	10.71	1.6
51	18239	10.81	1.6
51	18390	10.91	1.6
51	18544	11.01	1.6
51	18694	11.11	1.6
51	18844	11.21	1.6
51	18994	11.31	1.6
51	19144	11.41	1.6
51	19294	11.51	1.6
51	19444	11.61	1.6
51	19594	11.71	1.6
51	19745	11.81	1.6
51	20108	11.91	1.6
51	20262	12.01	1.6
51	20412	12.11	1.6
51	20562	12.21	1.6
51	20712	12.31	1.6
51	20862	12.41	1.6
51	21012	12.51	1.6
51	21162	12.61	1.6
51	21312	12.71	1.6
51	21462	12.81	1.6
51	21845	12.91	1.6
51	22000	13.01	1.6
51	22150	13.11	1.6
51	22300	13.21	1.6
51	22450	13.31	1.6
51	22600	13.41	1.6
51	22750	13.51	1.6
51	22900	13.61	1.6
51	23050	13.71	1.6
51	23200	13.81	1.6
51	23350	13.91	1.6
51	23504	14.01	1.6
51	23654	14.11	1.6
51	23804	14.21	1.6
51	23954	14.31	1.6
51	24104	14.41	1.6
51	24254	14.51	1.6
51	24404	14.61	1.6
51	24554	14.71	1.6
51	24704	14.81	1.6
51	24854	14.91	1.6
51	25008	15.01	1.6
51	25158	15.11	1.6
51	25308	15.21	1.6
51	25458	15.31	1.6
51	25608	15.41	1.6
51	25758	15.51	1.6
51	25908	15.61	1.6
51	26058	15.71	1.6
51	26208	15.81	1.6
51	26358	15.91	1.6
51	26512	16.01	1.6
51	26662	16.11	1.6
51	26812	16.21	1.6
51	26962	16.31	1.6
51	27112	16.41	1.6
51	27262	16.51	1.6
51	27412	16.61	1.6
51	27562	16.71	1.6
51	27712	16.81	1.6
51	27862	16.91	1.6
51	28016	17.01	1.6
51	28166	17.11	1.6
51	28316	17.21	1.6
51	28466	17.31	1.6
51	28616	17.41	1.6
51	28766	17.51	1.6
51	28916	17.61	1.6
51	29066	17.71	1.6
51	29216	17.81	1.6
51	29366	17.91	1.6
51	29520	18.01	1.6
51	29670	18.11	1.6
51	29820	18.21	1.6
51	29970	18.31	1.6
51	30120	18.41	1.6
51	30270	18.51	1.6
51	30420	18.61	1.6
51	30570	18.71	1.6
51	30720	18.81	1.6
51	30870	18.91	1.6
51	31024	19.01	1.6
51	31174	19.11	1.6
51	31324	19.21	1.6
51	31474	19.31	1.6
51	31624	19.41	1.6
51	31774	19.51	1.6
51	31924	19.61	1.6
51	32074	19.71	1.6
51	32224	19.81	1.6
51	32374	19.91	1.6
51	32528	20.01	1.6
51	32678	20.11	1.6
51	32828	20.21	1.6
51	32978	20.31	1.6
51	33128	20.41	1.6
51	33278	20.51	1.6
51	33428	20.61	1.6
51	33578	20.71	1.6
51	33728	20.81	1.6
51	33878	20.91	1.6
51	34032	21.01	1.6
51	34182	21.11	1.6
51	34332	21.21	1.6
51	34482	21.31	1.6
51	34632	21.41	1.6
51	34782	21.51	1.6
51	34932	21.61	1.6
51	35082	21.71	1.6
51	35232	21.81	1.6
51	35382	21.91	1.6
51	35536	22.01	1.6
51	35686	22.11	1.6
51	35836	22.21	1.6
51	35986	22.31	1.6
51	36136	22.41	1.6
51	36286	22.51	1.6
51	36436	22.61	1.6
51	36586	22.71	1.6
51	36736	22.81	1.6
51	36886	22.91	1.6
51	37040	23.01	1.6
51	37190	23.11	1.6
51	37340	23.21	1.6
51	37490	23.31	1.6
51	37640	23.41	1.6
51	37790	23.51	1.6
51	37940	23.61	1.6
51	38090	23.71	1.6
51	38240	23.81	1.6
51	38390	23.91	1.6
51	38544	24.01	1.6
51	38694	24.11	1.6
51	38844	24.21	1.6
51	38994	24.31	1.6
51	39144	24.41	1.6
51	39294	24.51	1.6
51	39444	24.61	1.6
51	39595	24.71	1.6
51	39745	24.81	1.6
51	39895	24.91	1.6
51	40049	25.01	1.6
51	40199	25.11	1.6
51	40349	25.21	1.6
51	40499	25.31	1.6
51	40649	25.41	1.6
51	40799	25.51	1.6
51	40949	25.61	1.6
51	41099	25.71	1.6
51	41249	25.81	1.6
51	41399	25.91	1.6
51	41553	26.01	1.6
51	41703	26.11	1.6
51	41853	26.21	1.6
51	42003	26.31	1.6
51	42153	26.41	1.6
51	42303	26.51	1.6
51	42453	26.61	1.6
51	42603	26.71	1.6
51	42753	26.81	1.6
51	42903	26.91	1.6
51	43057	27.01	1.6
51	43207	27.11	1.6
51	43357	27.21	1.6
51	43507	27.31	1.6
51	43657	27.41	1.6
51	43807	27.51	1.6
51	43957	27.61	1.6
51	44107	27.71	1.6
51	44257	27.81	1.6
51	44407	27.91	1.6
51	44561	28.01	1.6
51	44711	28.11	1.6
50	26	0.21	488.425
50	176	0.31	486.675
50	326	0.41	484.925
50	476	0.51	483.175
50	626	0.61	481.425
50	776	0.71	479.675
50	926	0.81	477.925
50	1076	0.91	476.175
50	1230	1.01	474.425
50	1381	1.11	472.675
50	1532	1.21	470.925
50	1683	1.31	469.175
50	2046	1.41	467.425
50	2196	1.51	465.675
50	2346	1.61	463.925
50	2496	1.71	462.175
50	2646	1.81	460.425
50	2796	1.91	458.675
50	2950	2.01	456.925
50	3100	2.11	455.175
50	3250	2.21	453.425
50	3400	2.31	451.675
50	3763	2.41	449.925
50	3914	2.51	448.175
50	4064	2.61	446.425
50	4214	2.71	444.675
50	4364	2.81	442.925
50	4514	2.91	441.175
50	4668	3.01	439.425
50	4818	3.11	437.675
50	4968	3.21	435.925
50	5118	3.31	434.175
50	5269	3.41	432.425
50	5676	3.51	430.675
50	5826	3.61	428.925
50	5976	3.71	427.175
50	6126	3.81	425.425
50	6276	3.91	423.675
50	6430	4.01	421.925
50	6580	4.11	420.175
50	6730	4.21	418.425
50	6880	4.31	416.675
50	7030	4.41	414.925
50	7393	4.51	413.175
50	7544	4.61	411.425
50	7694	4.71	409.675
50	7844	4.81	407.925
50	7994	4.91	406.175
50	8148	5.01	404.425
50	8298	5.11	402.675
50	8448	5.21	400.925
50	8598	5.31	399.175
50	8748	5.41	397.425
50	8899	5.51	395.675
50	9262	5.61	393.925
50	9412	5.71	392.175
50	9562	5.81	390.425
50	9712	5.91	388.675
50	9866	6.01	386.925
50	10016	6.11	385.175
50	10166	6.21	383.425
50	10316	6.31	381.675
50	10466	6.41	379.925
50	10616	6.51	378.175
50	11023	6.61	376.425
50	11174	6.71	374.675
50	11324	6.81	372.925
50	11474	6.91	371.175
50	11628	7.01	369.425
50	11778	7.11	367.675
50	11928	7.21	365.925
50	12078	7.31	364.175
50	12228	7.41	362.425
50	12378	7.51	360.675
50	12529	7.61	358.925
50	12892	7.71	357.175
50	13042	7.81	355.425
50	13192	7.91	353.675
50	13346	8.01	351.925
50	13496	8.11	350.175
50	13646	8.21	348.425
50	13796	8.31	346.675
50	13946	8.41	344.925
50	14096	8.51	343.175
50	14246	8.61	341.425
50	14609	8.71	339.675
50	14760	8.81	337.925
50	14910	8.91	336.175
50	15064	9.01	334.425
50	15214	9.11	332.675
50	15364	9.21	330.925
50	15514	9.31	329.175
50	15664	9.41	327.425
50	15814	9.51	325.675
50	15964	9.61	323.925
50	16115	9.71	322.175
50	16522	9.81	320.425
50	16672	9.91	318.675
50	16826	10.01	316.925
50	16976	10.11	315.175
50	17126	10.21	313.425
50	17276	10.31	311.675
50	17426	10.41	309.925
50	17576	10.51	308.175
50	17726	10.61	306.425
50	17876	10.71	304.675
50	18239	10.81	302.925
50	18390	10.91	301.175
50	18544	11.01	299.425
50	18694	11.11	297.675
50	18844	11.21	295.925
50	18994	11.31	294.175
50	19144	11.41	292.425
50	19294	11.51	290.675
50	19444	11.61	288.925
50	19594	11.71	287.175
50	19745	11.81	285.425
50	20108	11.91	283.675
50	20262	12.01	281.925
50	20412	12.11	280.175
50	20562	12.21	278.425
50	20712	12.31	276.675
50	20862	12.41	274.925
50	21012	12.51	273.175
50	21162	12.61	271.425
50	21312	12.71	269.675
50	21462	12.81	267.925
50	21845	12.91	266.175
50	22000	13.01	264.425
50	22150	13.11	262.675
50	22300	13.21	260.925
50	22450	13.31	259.175
50	22600	13.41	257.425
50	22750	13.51	255.675
50	22900	13.61	253.925
50	23050	13.71	252.175
50	23200	13.81	250.425
50	23350	13.91	248.675
50	23504	14.01	246.925
50	23654	14.11	245.175
50	23804	14.21	243.425
50	23954	14.31	241.675
50	24104	14.41	239.925
50	24254	14.51	238.175
50	24404	14.61	236.425
50	24554	14.71	234.675
50	24704	14.81	232.925
50	24854	14.91	231.175
50	25008	15.01	229.425
50	25158	15.11	227.675
50	25308	15.21	225.925
50	25458	15.31	224.175
50	25608	15.41	222.425
50	25758	15.51	220.675
50	25908	15.61	218.925
50	26058	15.71	217.175
50	26208	15.81	215.425
50	26358	15.91	213.675
50	26512	16.01	211.925
50	26662	16.11	210.175
50	26812	16.21	208.425
50	26962	16.31	206.675
50	27112	16.41	204.925
50	27262	16.51	203.175
50	27412	16.61	201.425
50	27562	16.71	199.675
50	27712	16.81	197.925
50	27862	16.91	196.175
50	28016	17.01	194.425
50	28166	17.11	192.675
50	28316	17.21	190.925
50	28466	17.31	189.175
50	28616	17.41	187.425
50	28766	17.51	185.675
50	28916	17.61	183.925
50	29066	17.71	182.175
50	29216	17.81	180.425
50	29366	17.91	178.675
50	29520	18.01	176.925
50	29670	18.11	175.175
50	29820	18.21	173.425
50	29970	18.31	171.675
50	30120	18.41	169.925
50	30270	18.51	168.175
50	30420	18.61	166.425
50	30570	18.71	164.675
50	30720	18.81	162.925
50	30870	18.91	161.175
50	31024	19.01	159.425
50	31174	19.11	157.675
50	31324	19.21	155.925
50	31474	19.31	154.175
50	31624	19.41	152.425
50	31774	19.51	150.675
50	31924	19.61	148.925
50	32074	19.71	147.175
50	32224	19.81	145.425
50	32374	19.91	143.675
50	32528	20.01	141.925
50	32678	20.11	140.175
50	32828	20.21	138.425
50	32978	20.31	136.675
50	33128	20.41	134.925
50	33278	20.51	133.175
50	33428	20.61	131.425
50	33578	20.71	129.675
50	33728	20.81	127.925
50	33878	20.91	126.175
50	34032	21.01	124.425
50	34182	21.11	122.675
50	34332	21.21	120.925
50	34482	21.31	119.175
50	34632	21.41	117.425
50	34782	21.51	115.675
50	34932	21.61	113.925
50	35082	21.71	112.175
50	35232	21.81	110.425
50	35382	21.91	108.675
50	35536	22.01	106.925
50	35686	22.11	105.175
50	35836	22.21	103.425
50	35986	22.31	101.675
50	36136	22.41	99.925
50	36286	22.51	98.175
50	36436	22.61	96.425
50	36586	22.71	94.675
50	36736	22.81	92.925
50	36886	22.91	91.175
50	37040	23.01	89.425
50	37190	23.11	87.675
50	37340	23.21	85.925
50	37490	23.31	84.175
50	37640	23.41	82.425
50	37790	23.51	80.675
50	37940	23.61	78.925
50	38090	23.71	77.175
50	38240	23.81	75.425
50	38390	23.91	73.675
50	38544	24.01	71.925
50	38694	24.11	70.175
50	38844	24.21	68.425
50	38994	24.31	66.675
50	39144	24.41	64.925
50	39294	24.51	63.175
50	39444	24.61	61.425
50	39595	24.71	59.675
50	39745	24.81	57.925
50	39895	24.91	56.175
50	40049	25.01	54.425
50	40199	25.11	52.675
50	40349	25.21	50.925
50	40499	25.31	49.175
50	40649	25.41	47.425
50	40799	25.51	45.675
50	40949	25.61	43.925
50	41099	25.71	42.175
50	41249	25.81	40.425
50	41399	25.91	38.675
50	41553	26.01	36.925
50	41703	26.11	35.175
50	41853	26.21	33.425
50	42003	26.31	31.675
50	42153	26.41	29.925
50	42303	26.51	28.175
50	42453	26.61	26.425
50	42603	26.71	24.675
50	42753	26.81	22.925
50	42903	26.91	21.175
50	43057	27.01	19.425
50	43207	27.11	17.675
50	43357	27.21	15.925
50	43507	27.31	14.175
50	43657	27.41	12.425
50	43807	27.51	10.675
50	43957	27.61	8.925
50	44107	27.71	7.175
50	44257	27.81	5.425
50	44407	27.91	3.675
50	44561	28.01	1.925
50	44711	28.11	0.175
49	26	0.21	17.5
49	176	0.31	17.5
49	326	0.41	17.5
49	476	0.51	17.5
49	626	0.61	17.5
49	776	0.71	17.5
49	926	0.81	17.5
49	1076	0.91	17.5
49	1230	1.01	17.5
49	1381	1.11	17.5
49	1532	1.21	17.5
49	1683	1.31	17.5
49	2046	1.41	17.5
49	2196	1.51	17.5
49	2346	1.61	17.5
49	2496	1.71	17.5
49	2646	1.81	17.5
49	2796	1.91	17.5
49	2950	2.01	17.5
49	3100	2.11	17.5
49	3250	2.21	17.5
49	3400	2.31	17.5
49	3763	2.41	17.5
49	3914	2.51	17.5
49	4064	2.61	17.5
49	4214	2.71	17.5
49	4364	2.81	17.5
49	4514	2.91	17.5
49	4668	3.01	17.5
49	4818	3.11	17.5
49	4968	3.21	17.5
49	5118	3.31	17.5
49	5269	3.41	17.5
49	5676	3.51	17.5
49	5826	3.61	17.5
49	5976	3.71	17.5
49	6126	3.81	17.5
49	6276	3.91	17.5
49	6430	4.01	17.5
49	6580	4.11	17.5
49	6730	4.21	17.5
49	6880	4.31	17.5
49	7030	4.41	17.5
49	7393	4.51	17.5
49	7544	4.61	17.5
49	7694	4.71	17.5
49	7844	4.81	17.5
49	7994	4.91	17.5
49	8148	5.01	17.5
49	8298	5.11	17.5
49	8448	5.21	17.5
49	8598	5.31	17.5
49	8748	5.41	17.5
49	8899	5.51	17.5
49	9262	5.61	17.5
49	9412	5.71	17.5
49	9562	5.81	17.5
49	9712	5.91	17.5
49	9866	6.01	17.5
49	10016	6.11	17.5
49	10166	6.21	17.5
49	10316	6.31	17.5
49	10466	6.41	17.5
49	10616	6.51	17.5
49	11023	6.61	17.5
49	11174	6.71	17.5
49	11324	6.81	17.5
49	11474	6.91	17.5
49	11628	7.01	17.5
49	11778	7.11	17.5
49	11928	7.21	17.5
49	12078	7.31	17.5
49	12228	7.41	17.5
49	12378	7.51	17.5
49	12529	7.61	17.5
49	12892	7.71	17.5
49	13042	7.81	17.5
49	13192	7.91	17.5
49	13346	8.01	17.5
49	13496	8.11	17.5
49	13646	8.21	17.5
49	13796	8.31	17.5
49	13946	8.41	17.5
49	14096	8.51	17.5
49	14246	8.61	17.5
49	14609	8.71	17.5
49	14760	8.81	17.5
49	14910	8.91	17.5
49	15064	9.01	17.5
49	15214	9.11	17.5
49	15364	9.21	17.5
49	15514	9.31	17.5
49	15664	9.41	17.5
49	15814	9.51	17.5
49	15964	9.61	17.5
49	16115	9.71	17.5
49	16522	9.81	17.5
49	16672	9.91	17.5
49	16826	10.01	17.5
49	16976	10.11	17.5
49	17126	10.21	17.5
49	17276	10.31	17.5
49	17426	10.41	17.5
49	17576	10.51	17.5
49	17726	10.61	17.5
49	17876	10.71	17.5
49	18239	10.81	17.5
49	18390	10.91	17.5
49	18544	11.01	17.5
49	18694	11.11	17.5
49	18844	11.21	17.5
49	18994	11.31	17.5
49	19144	11.41	17.5
49	19294	11.51	17.5
49	19444	11.61	17.5
49	19594	11.71	17.5
49	19745	11.81	17.5
49	20108	11.91	17.5
49	20262	12.01	17.5
49	20412	12.11	17.5
49	20562	12.21	17.5
49	20712	12.31	17.5
49	20862	12.41	17.5
49	21012	12.51	17.5
49	21162	12.61	17.5
49	21312	12.71	17.5
49	21462	12.81	17.5
49	21845	12.91	17.5
49	22000	13.01	17.5
49	22150	13.11	17.5
49	22300	13.21	17.5
49	22450	13.31	17.5
49	22600	13.41	17.5
49	22750	13.51	17.5
49	22900	13.61	17.5
49	23050	13.71	17.5
49	23200	13.81	17.5
49	23350	13.91	17.5
49	23504	14.01	17.5
49	23654	14.11	17.5
49	23804	14.21	17.5
49	23954	14.31	17.5
49	24104	14.41	17.5
49	24254	14.51	17.5
49	24404	14.61	17.5
49	24554	14.71	17.5
49	24704	14.81	17.5
49	24854	14.91	17.5
49	25008	15.01	17.5
49	25158	15.11	17.5
49	25308	15.21	17.5
49	25458	15.31	17.5
49	25608	15.41	17.5
49	25758	15.51	17.5
49	25908	15.61	17.5
49	26058	15.71	17.5
49	26208	15.81	17.5
49	26358	15.91	17.5
49	26512	16.01	17.5
49	26662	16.11	17.5
49	26812	16.21	17.5
49	26962	16.31	17.5
49	27112	16.41	17.5
49	27262	16.51	17.5
49	27412	16.61	17.5
49	27562	16.71	17.5
49	27712	16.81	17.5
49	27862	16.91	17.5
49	28016	17.01	17.5
49	28166	17.11	17.5
49	28316	17.21	17.5
49	28466	17.31	17.5
49	28616	17.41	17.5
49	28766	17.51	17.5
49	28916	17.61	17.5
49	29066	17.71	17.5
49	29216	17.81	17.5
49	29366	17.91	17.5
49	29520	18.01	17.5
49	29670	18.11	17.5
49	29820	18.21	17.5
49	29970	18.31	17.5
49	30120	18.41	17.5
49	30270	18.51	17.5
49	30420	18.61	17.5
49	30570	18.71	17.5
49	30720	18.81	17.5
49	30870	18.91	17.5
49	31024	19.01	17.5
49	31174	19.11	17.5
49	31324	19.21	17.5
49	31474	19.31	17.5
49	31624	19.41	17.5
49	31774	19.51	17.5
49	31924	19.61	17.5
49	32074	19.71	17.5
49	32224	19.81	17.5
49	32374	19.91	17.5
49	32528	20.01	17.5
49	32678	20.11	17.5
49	32828	20.21	17.5
49	32978	20.31	17.5
49	33128	20.41	17.5
49	33278	20.51	17.5
49	33428	20.61	17.5
49	33578	20.71	17.5
49	33728	20.81	17.5
49	33878	20.91	17.5
49	34032	21.01	17.5
49	34182	21.11	17.5
49	34332	21.21	17.5
49	34482	21.31	17.5
49	34632	21.41	17.5
49	34782	21.51	17.5
49	34932	21.61	17.5
49	35082	21.71	17.5
49	35232	21.81	17.5
49	35382	21.91	17.5
49	35536	22.01	17.5
49	35686	22.11	17.5
49	35836	22.21	17.5
49	35986	22.31	17.5
49	36136	22.41	17.5
49	36286	22.51	17.5
49	36436	22.61	17.5
49	36586	22.71	17.5
49	36736	22.81	17.5
49	36886	22.91	17.5
49	37040	23.01	17.5
49	37190	23.11	17.5
49	37340	23.21	17.5
49	37490	23.31	17.5
49	37640	23.41	17.5
49	37790	23.51	17.5
49	37940	23.61	17.5
49	38090	23.71	17.5
49	38240	23.81	17.5
49	38390	23.91	17.5
49	38544	24.01	17.5
49	38694	24.11	17.5
49	38844	24.21	17.5
49	38994	24.31	17.5
49	39144	24.41	17.5
49	39294	24.51	17.5
49	39444	24.61	17.5
49	39595	24.71	17.5
49	39745	24.81	17.5
49	39895	24.91	17.5
49	40049	25.01	17.5
49	40199	25.11	17.5
49	40349	25.21	17.5
49	40499	25.31	17.5
49	40649	25.41	17.5
49	40799	25.51	17.5
49	40949	25.61	17.5
49	41099	25.71	17.5
49	41249	25.81	17.5
49	41399	25.91	17.5
49	41553	26.01	17.5
49	41703	26.11	17.5
49	41853	26.21	17.5
49	42003	26.31	17.5
49	42153	26.41	17.5
49	42303	26.51	17.5
49	42453	26.61	17.5
49	42603	26.71	17.5
49	42753	26.81	17.5
49	42903	26.91	17.5
49	43057	27.01	17.5
49	43207	27.11	17.5
49	43357	27.21	17.5
49	43507	27.31	17.5
49	43657	27.41	17.5
49	43807	27.51	17.5
49	43957	27.61	17.5
49	44107	27.71	17.5
49	44257	27.81	17.5
49	44407	27.91	17.5
49	44561	28.01	17.5
49	44711	28.11	17.5
45	26	0.21	0
45	176	0.31	0
45	326	0.41	0
45	476	0.51	0
45	626	0.61	0
45	776	0.71	0
45	926	0.81	0
45	1076	0.91	0
45	1230	1.01	0
45	1381	1.11	0
45	1532	1.21	0
45	1683	1.31	0
45	2046	1.41	0
45	2196	1.51	0
45	2346	1.61	0
45	2496	1.71	0
45	2646	1.81	0
45	2796	1.91	0
45	2950	2.01	0
45	3100	2.11	0
45	3250	2.21	0
45	3400	2.31	0
45	3763	2.41	0
45	3914	2.51	0
45	4064	2.61	0
45	4214	2.71	0
45	4364	2.81	0
45	4514	2.91	0
45	4668	3.01	0
45	4818	3.11	0
45	4968	3.21	0
45	5118	3.31	0
45	5269	3.41	0
45	5676	3.51	0
45	5826	3.61	0
45	5976	3.71	0
45	6126	3.81	0
45	6276	3.91	0
45	6430	4.01	0
45	6580	4.11	0
45	6730	4.21	0
45	6880	4.31	0
45	7030	4.41	0
45	7393	4.51	0
45	7544	4.61	0
45	7694	4.71	0
45	7844	4.81	0
45	7994	4.91	0
45	8148	5.01	0
45	8298	5.11	0
45	8448	5.21	0
45	8598	5.31	0
45	8748	5.41	0
45	8899	5.51	0
45	9262	5.61	0
45	9412	5.71	0
45	9562	5.81	0
45	9712	5.91	0
45	9866	6.01	0
45	10016	6.11	0
45	10166	6.21	0
45	10316	6.31	0
45	10466	6.41	0
45	10616	6.51	0
45	11023	6.61	0
45	11174	6.71	0
45	11324	6.81	0
45	11474	6.91	0
45	11628	7.01	0
45	11778	7.11	0
45	11928	7.21	0
45	12078	7.31	0
45	12228	7.41	0
45	12378	7.51	0
45	12529	7.61	0
45	12892	7.71	0
45	13042	7.81	0
45	13192	7.91	0
45	13346	8.01	0
45	13496	8.11	0
45	13646	8.21	0
45	13796	8.31	0
45	13946	8.41	0
45	14096	8.51	0
45	14246	8.61	0
45	14609	8.71	0
45	14760	8.81	0
45	14910	8.91	0
45	15064	9.01	0
45	15214	9.11	0
45	15364	9.21	0
45	15514	9.31	0
45	15664	9.41	0
45	15814	9.51	0
45	15964	9.61	0
45	16115	9.71	0
45	16522	9.81	0
45	16672	9.91	0
45	16826	10.01	0
45	16976	10.11	0
45	17126	10.21	0
45	17276	10.31	0
45	17426	10.41	0
45	17576	10.51	0
45	17726	10.61	0
45	17876	10.71	0
45	18239	10.81	0
45	18390	10.91	0
45	18544	11.01	0
45	18694	11.11	0
45	18844	11.21	0
45	18994	11.31	0
45	19144	11.41	0
45	19294	11.51	0
45	19444	11.61	0
45	19594	11.71	0
45	19745	11.81	0
45	20108	11.91	0
45	20262	12.01	0
45	20412	12.11	0
45	20562	12.21	0
45	20712	12.31	0
45	20862	12.41	0
45	21012	12.51	0
45	21162	12.61	0
45	21312	12.71	0
45	21462	12.81	0
45	21845	12.91	0
45	22000	13.01	0
45	22150	13.11	0
45	22300	13.21	0
45	22450	13.31	0
45	22600	13.41	0
45	22750	13.51	0
45	22900	13.61	0
45	23050	13.71	0
45	23200	13.81	0
45	23350	13.91	0
45	23504	14.01	0
45	23654	14.11	0
45	23804	14.21	0
45	23954	14.31	0
45	24104	14.41	0
45	24254	14.51	0
45	24404	14.61	0
45	24554	14.71	0
45	24704	14.81	0
45	24854	14.91	0
45	25008	15.01	0
45	25158	15.11	0
45	25308	15.21	0
45	25458	15.31	0
45	25608	15.41	0
45	25758	15.51	0
45	25908	15.61	0
45	26058	15.71	0
45	26208	15.81	0
45	26358	15.91	0
45	26512	16.01	0
45	26662	16.11	0
45	26812	16.21	0
45	26962	16.31	0
45	27112	16.41	0
45	27262	16.51	0
45	27412	16.61	0
45	27562	16.71	0
45	27712	16.81	0
45	27862	16.91	0
45	28016	17.01	0
45	28166	17.11	0
45	28316	17.21	0
45	28466	17.31	0
45	28616	17.41	0
45	28766	17.51	0
45	28916	17.61	0
45	29066	17.71	0
45	29216	17.81	0
45	29366	17.91	0
45	29520	18.01	0
45	29670	18.11	0
45	29820	18.21	0
45	29970	18.31	0
45	30120	18.41	0
45	30270	18.51	0
45	30420	18.61	0
45	30570	18.71	0
45	30720	18.81	0
45	30870	18.91	0
45	31024	19.01	0
45	31174	19.11	0
45	31324	19.21	0
45	31474	19.31	0
45	31624	19.41	0
45	31774	19.51	0
45	31924	19.61	0
45	32074	19.71	0
45	32224	19.81	0
45	32374	19.91	0
45	32528	20.01	0
45	32678	20.11	0
45	32828	20.21	0
45	32978	20.31	0
45	33128	20.41	0
45	33278	20.51	0
45	33428	20.61	0
45	33578	20.71	0
45	33728	20.81	0
45	33878	20.91	0
45	34032	21.01	0
45	34182	21.11	0
45	34332	21.21	0
45	34482	21.31	0
45	34632	21.41	0
45	34782	21.51	0
45	34932	21.61	0
45	35082	21.71	0
45	35232	21.81	0
45	35382	21.91	0
45	35536	22.01	0
45	35686	22.11	0
45	35836	22.21	0
45	35986	22.31	0
45	36136	22.41	0
45	36286	22.51	0
45	36436	22.61	0
45	36586	22.71	0
45	36736	22.81	0
45	36886	22.91	0
45	37040	23.01	0
45	37190	23.11	0
45	37340	23.21	0
45	37490	23.31	0
45	37640	23.41	0
45	37790	23.51	0
45	37940	23.61	0
45	38090	23.71	0
45	38240	23.81	0
45	38390	23.91	0
45	38544	24.01	0
45	38694	24.11	0
45	38844	24.21	0
45	38994	24.31	0
45	39144	24.41	0
45	39294	24.51	0
45	39444	24.61	0
45	39595	24.71	0
45	39745	24.81	0
45	39895	24.91	0
45	40049	25.01	0
45	40199	25.11	0
45	40349	25.21	0
45	40499	25.31	0
45	40649	25.41	0
45	40799	25.51	0
45	40949	25.61	0
45	41099	25.71	0
45	41249	25.81	0
45	41399	25.91	0
45	41553	26.01	0
45	41703	26.11	0
45	41853	26.21	0
45	42003	26.31	0
45	42153	26.41	0
45	42303	26.51	0
45	42453	26.61	0
45	42603	26.71	0
45	42753	26.81	0
45	42903	26.91	0
45	43057	27.01	0
45	43207	27.11	0
45	43357	27.21	0
45	43507	27.31	0
45	43657	27.41	0
45	43807	27.51	0
45	43957	27.61	0
45	44107	27.71	0
45	44257	27.81	0
45	44407	27.91	0
45	44561	28.01	0
45	44711	28.11	0
44	26	0.21	-1
44	176	0.31	-1
44	326	0.41	-1
44	476	0.51	-1
44	626	0.61	-1
44	776	0.71	-1
44	926	0.81	-1
44	1076	0.91	-1
44	1230	1.01	-1
44	1381	1.11	-1
44	1532	1.21	-1
44	1683	1.31	-1
44	2046	1.41	-1
44	2196	1.51	-1
44	2346	1.61	-1
44	2496	1.71	-1
44	2646	1.81	-1
44	2796	1.91	-1
44	2950	2.01	-1
44	3100	2.11	-1
44	3250	2.21	-1
44	3400	2.31	-1
44	3763	2.41	-1
44	3914	2.51	-1
44	4064	2.61	-1
44	4214	2.71	-1
44	4364	2.81	-1
44	4514	2.91	-1
44	4668	3.01	-1
44	4818	3.11	-1
44	4968	3.21	-1
44	5118	3.31	-1
44	5269	3.41	-1
44	5676	3.51	-1
44	5826	3.61	-1
44	5976	3.71	-1
44	6126	3.81	-1
44	6276	3.91	-1
44	6430	4.01	-1
44	6580	4.11	-1
44	6730	4.21	-1
44	6880	4.31	-1
44	7030	4.41	-1
44	7393	4.51	-1
44	7544	4.61	-1
44	7694	4.71	-1
44	7844	4.81	-1
44	7994	4.91	-1
44	8148	5.01	-1
44	8298	5.11	-1
44	8448	5.21	-1
44	8598	5.31	-1
44	8748	5.41	-1
44	8899	5.51	-1
44	9262	5.61	-1
44	9412	5.71	-1
44	9562	5.81	-1
44	9712	5.91	-1
44	9866	6.01	-1
44	10016	6.11	-1
44	10166	6.21	-1
44	10316	6.31	-1
44	10466	6.41	-1
44	10616	6.51	-1
44	11023	6.61	-1
44	11174	6.71	-1
44	11324	6.81	-1
44	11474	6.91	-1
44	11628	7.01	-1
44	11778	7.11	-1
44	11928	7.21	-1
44	12078	7.31	-1
44	12228	7.41	-1
44	12378	7.51	-1
44	12529	7.61	-1
44	12892	7.71	-1
44	13042	7.81	-1
44	13192	7.91	-1
44	13346	8.01	-1
44	13496	8.11	-1
44	13646	8.21	-1
44	13796	8.31	-1
44	13946	8.41	-1
44	14096	8.51	-1
44	14246	8.61	-1
44	14609	8.71	-1
44	14760	8.81	-1
44	14910	8.91	-1
44	15064	9.01	-1
44	15214	9.11	-1
44	15364	9.21	-1
44	15514	9.31	-1
44	15664	9.41	-1
44	15814	9.51	-1
44	15964	9.61	-1
44	16115	9.71	-1
44	16522	9.81	-1
44	16672	9.91	-1
44	16826	10.01	-1
44	16976	10.11	-1
44	17126	10.21	-1
44	17276	10.31	-1
44	17426	10.41	-1
44	17576	10.51	-1
44	17726	10.61	-1
44	17876	10.71	-1
44	18239	10.81	-1
44	18390	10.91	-1
44	18544	11.01	-1
44	18694	11.11	-1
44	18844	11.21	-1
44	18994	11.31	-1
44	19144	11.41	-1
44	19294	11.51	-1
44	19444	11.61	-1
44	19594	11.71	-1
44	19745	11.81	-1
44	20108	11.91	-1
44	20262	12.01	-1
44	20412	12.11	-1
44	20562	12.21	-1
44	20712	12.31	-1
44	20862	12.41	-1
44	21012	12.51	-1
44	21162	12.61	-1
44	21312	12.71	-1
44	21462	12.81	-1
44	21845	12.91	-1
44	22000	13.01	-1
44	22150	13.11	-1
44	22300	13.21	-1
44	22450	13.31	-1
44	22600	13.41	-1
44	22750	13.51	-1
44	22900	13.61	-1
44	23050	13.71	-1
44	23200	13.81	-1
44	23350	13.91	-1
44	23504	14.01	-1
44	23654	14.11	-1
44	23804	14.21	-1
44	23954	14.31	-1
44	24104	14.41	-1
44	24254	14.51	-1
44	24404	14.61	-1
44	24554	14.71	-1
44	24704	14.81	-1
44	24854	14.91	-1
44	25008	15.01	-1
44	25158	15.11	-1
44	25308	15.21	-1
44	25458	15.31	-1
44	25608	15.41	-1
44	25758	15.51	-1
44	25908	15.61	-1
44	26058	15.71	-1
44	26208	15.81	-1
44	26358	15.91	-1
44	26512	16.01	-1
44	26662	16.11	-1
44	26812	16.21	-1
44	26962	16.31	-1
44	27112	16.41	-1
44	27262	16.51	-1
44	27412	16.61	-1
44	27562	16.71	-1
44	27712	16.81	-1
44	27862	16.91	-1
44	28016	17.01	-1
44	28166	17.11	-1
44	28316	17.21	-1
44	28466	17.31	-1
44	28616	17.41	-1
44	28766	17.51	-1
44	28916	17.61	-1
44	29066	17.71	-1
44	29216	17.81	-1
44	29366	17.91	-1
44	29520	18.01	-1
44	29670	18.11	-1
44	29820	18.21	-1
44	29970	18.31	-1
44	30120	18.41	-1
44	30270	18.51	-1
44	30420	18.61	-1
44	30570	18.71	-1
44	30720	18.81	-1
44	30870	18.91	-1
44	31024	19.01	-1
44	31174	19.11	-1
44	31324	19.21	-1
44	31474	19.31	-1
44	31624	19.41	-1
44	31774	19.51	-1
44	31924	19.61	-1
44	32074	19.71	-1
44	32224	19.81	-1
44	32374	19.91	-1
44	32528	20.01	-1
44	32678	20.11	-1
44	32828	20.21	-1
44	32978	20.31	-1
44	33128	20.41	-1
44	33278	20.51	-1
44	33428	20.61	-1
44	33578	20.71	-1
44	33728	20.81	-1
44	33878	20.91	-1
44	34032	21.01	-1
44	34182	21.11	-1
44	34332	21.21	-1
44	34482	21.31	-1
44	34632	21.41	-1
44	34782	21.51	-1
44	34932	21.61	-1
44	35082	21.71	-1
44	35232	21.81	-1
44	35382	21.91	-1
44	35536	22.01	-1
44	35686	22.11	-1
44	35836	22.21	-1
44	35986	22.31	-1
44	36136	22.41	-1
44	36286	22.51	-1
44	36436	22.61	-1
44	36586	22.71	-1
44	36736	22.81	-1
44	36886	22.91	-1
44	37040	23.01	-1
44	37190	23.11	-1
44	37340	23.21	-1
44	37490	23.31	-1
44	37640	23.41	-1
44	37790	23.51	-1
44	37940	23.61	-1
44	38090	23.71	-1
44	38240	23.81	-1
44	38390	23.91	-1
44	38544	24.01	-1
44	38694	24.11	-1
44	38844	24.21	-1
44	38994	24.31	-1
44	39144	24.41	-1
44	39294	24.51	-1
44	39444	24.61	-1
44	39595	24.71	-1
44	39745	24.81	-1
44	39895	24.91	-1
44	40049	25.01	-1
44	40199	25.11	-1
44	40349	25.21	-1
44	40499	25.31	-1
44	40649	25.41	-1
44	40799	25.51	-1
44	40949	25.61	-1
44	41099	25.71	-1
44	41249	25.81	-1
44	41399	25.91	-1
44	41553	26.01	-1
44	41703	26.11	-1
44	41853	26.21	-1
44	42003	26.31	-1
44	42153	26.41	-1
44	42303	26.51	-1
44	42453	26.61	-1
44	42603	26.71	-1
44	42753	26.81	-1
44	42903	26.91	-1
44	43057	27.01	-1
44	43207	27.11	-1
44	43357	27.21	-1
44	43507	27.31	-1
44	43657	27.41	-1
44	43807	27.51	-1
44	43957	27.61	-1
44	44107	27.71	-1
44	44257	27.81	-1
44	44407	27.91	-1
44	44561	28.01	-1
44	44711	28.11	-1
46	26	0.21	3
46	176	0.31	3
46	326	0.41	3
46	476	0.51	3
46	626	0.61	3
46	776	0.71	3
46	926	0.81	3
46	1076	0.91	3
46	1230	1.01	3
46	1381	1.11	3
46	1532	1.21	3
46	1683	1.31	3
46	2046	1.41	3
46	2196	1.51	3
46	2346	1.61	3
46	2496	1.71	3
46	2646	1.81	3
46	2796	1.91	3
46	2950	2.01	3
46	3100	2.11	3
46	3250	2.21	3
46	3400	2.31	3
46	3763	2.41	3
46	3914	2.51	3
46	4064	2.61	3
46	4214	2.71	3
46	4364	2.81	3
46	4514	2.91	3
46	4668	3.01	3
46	4818	3.11	3
46	4968	3.21	3
46	5118	3.31	3
46	5269	3.41	3
46	5676	3.51	3
46	5826	3.61	3
46	5976	3.71	3
46	6126	3.81	3
46	6276	3.91	3
46	6430	4.01	3
46	6580	4.11	3
46	6730	4.21	3
46	6880	4.31	3
46	7030	4.41	3
46	7393	4.51	3
46	7544	4.61	3
46	7694	4.71	3
46	7844	4.81	3
46	7994	4.91	3
46	8148	5.01	3
46	8298	5.11	3
46	8448	5.21	3
46	8598	5.31	3
46	8748	5.41	3
46	8899	5.51	3
46	9262	5.61	3
46	9412	5.71	3
46	9562	5.81	3
46	9712	5.91	3
46	9866	6.01	3
46	10016	6.11	3
46	10166	6.21	3
46	10316	6.31	3
46	10466	6.41	3
46	10616	6.51	3
46	11023	6.61	3
46	11174	6.71	3
46	11324	6.81	3
46	11474	6.91	3
46	11628	7.01	3
46	11778	7.11	3
46	11928	7.21	3
46	12078	7.31	3
46	12228	7.41	3
46	12378	7.51	3
46	12529	7.61	3
46	12892	7.71	3
46	13042	7.81	3
46	13192	7.91	3
46	13346	8.01	3
46	13496	8.11	3
46	13646	8.21	3
46	13796	8.31	3
46	13946	8.41	3
46	14096	8.51	3
46	14246	8.61	3
46	14609	8.71	3
46	14760	8.81	3
46	14910	8.91	3
46	15064	9.01	3
46	15214	9.11	3
46	15364	9.21	3
46	15514	9.31	3
46	15664	9.41	3
46	15814	9.51	3
46	15964	9.61	3
46	16115	9.71	3
46	16522	9.81	3
46	16672	9.91	3
46	16826	10.01	3
46	16976	10.11	3
46	17126	10.21	3
46	17276	10.31	3
46	17426	10.41	3
46	17576	10.51	3
46	17726	10.61	3
46	17876	10.71	3
46	18239	10.81	3
46	18390	10.91	3
46	18544	11.01	3
46	18694	11.11	3
46	18844	11.21	3
46	18994	11.31	3
46	19144	11.41	3
46	19294	11.51	3
46	19444	11.61	3
46	19594	11.71	3
46	19745	11.81	3
46	20108	11.91	3
46	20262	12.01	3
46	20412	12.11	3
46	20562	12.21	3
46	20712	12.31	3
46	20862	12.41	3
46	21012	12.51	3
46	21162	12.61	3
46	21312	12.71	3
46	21462	12.81	3
46	21845	12.91	3
46	22000	13.01	3
46	22150	13.11	3
46	22300	13.21	3
46	22450	13.31	3
46	22600	13.41	3
46	22750	13.51	3
46	22900	13.61	3
46	23050	13.71	3
46	23200	13.81	3
46	23350	13.91	3
46	23504	14.01	3
46	23654	14.11	3
46	23804	14.21	3
46	23954	14.31	3
46	24104	14.41	3
46	24254	14.51	3
46	24404	14.61	3
46	24554	14.71	3
46	24704	14.81	3
46	24854	14.91	3
46	25008	15.01	3
46	25158	15.11	3
46	25308	15.21	3
46	25458	15.31	3
46	25608	15.41	3
46	25758	15.51	3
46	25908	15.61	3
46	26058	15.71	3
46	26208	15.81	3
46	26358	15.91	3
46	26512	16.01	3
46	26662	16.11	3
46	26812	16.21	3
46	26962	16.31	3
46	27112	16.41	3
46	27262	16.51	3
46	27412	16.61	3
46	27562	16.71	3
46	27712	16.81	3
46	27862	16.91	3
46	28016	17.01	3
46	28166	17.11	3
46	28316	17.21	3
46	28466	17.31	3
46	28616	17.41	3
46	28766	17.51	3
46	28916	17.61	3
46	29066	17.71	3
46	29216	17.81	3
46	29366	17.91	3
46	29520	18.01	3
46	29670	18.11	3
46	29820	18.21	3
46	29970	18.31	3
46	30120	18.41	3
46	30270	18.51	3
46	30420	18.61	3
46	30570	18.71	3
46	30720	18.81	3
46	30870	18.91	3
46	31024	19.01	3
46	31174	19.11	3
46	31324	19.21	3
46	31474	19.31	3
46	31624	19.41	3
46	31774	19.51	3
46	31924	19.61	3
46	32074	19.71	3
46	32224	19.81	3
46	32374	19.91	3
46	32528	20.01	3
46	32678	20.11	3
46	32828	20.21	3
46	32978	20.31	3
46	33128	20.41	3
46	33278	20.51	3
46	33428	20.61	3
46	33578	20.71	3
46	33728	20.81	3
46	33878	20.91	3
46	34032	21.01	3
46	34182	21.11	3
46	34332	21.21	3
46	34482	21.31	3
46	34632	21.41	3
46	34782	21.51	3
46	34932	21.61	3
46	35082	21.71	3
46	35232	21.81	3
46	35382	21.91	3
46	35536	22.01	3
46	35686	22.11	3
46	35836	22.21	3
46	35986	22.31	3
46	36136	22.41	3
46	36286	22.51	3
46	36436	22.61	3
46	36586	22.71	3
46	36736	22.81	3
46	36886	22.91	3
46	37040	23.01	3
46	37190	23.11	3
46	37340	23.21	3
46	37490	23.31	3
46	37640	23.41	3
46	37790	23.51	3
46	37940	23.61	3
46	38090	23.71	3
46	38240	23.81	3
46	38390	23.91	3
46	38544	24.01	3
46	38694	24.11	3
46	38844	24.21	3
46	38994	24.31	3
46	39144	24.41	3
46	39294	24.51	3
46	39444	24.61	3
46	39595	24.71	3
46	39745	24.81	3
46	39895	24.91	3
46	40049	25.01	3
46	40199	25.11	3
46	40349	25.21	3
46	40499	25.31	3
46	40649	25.41	3
46	40799	25.51	3
46	40949	25.61	3
46	41099	25.71	3
46	41249	25.81	3
46	41399	25.91	3
46	41553	26.01	3
46	41703	26.11	3
46	41853	26.21	3
46	42003	26.31	3
46	42153	26.41	3
46	42303	26.51	3
46	42453	26.61	3
46	42603	26.71	3
46	42753	26.81	3
46	42903	26.91	3
46	43057	27.01	3
46	43207	27.11	3
46	43357	27.21	3
46	43507	27.31	3
46	43657	27.41	3
46	43807	27.51	3
46	43957	27.61	3
46	44107	27.71	3
46	44257	27.81	3
46	44407	27.91	3
46	44561	28.01	3
46	44711	28.11	3
67	1191	1	0
67	2911	2	0
67	4629	3	0
67	6391	4	0
67	8109	5	0
67	9827	6	0
67	11589	7	0
67	13307	8	0
67	15025	9	0
67	16787	10	0
67	18505	11	0
67	20223	12	0
67	21961	13	0
67	23465	14	0
67	24969	15	0
67	26473	16	0
67	27977	17	0
67	29481	18	0
67	30985	19	0
67	32489	20	0
67	33993	21	0
67	35497	22	0
67	37001	23	0
67	38505	24	0
67	40010	25	0
67	41514	26	0
67	43018	27	0
67	44522	28	0
66	1191	1	0.009679
66	2911	2	0.013005588928
66	4629	3	0.013005320456
66	6391	4	0.013053069132
66	8109	5	0.013004823024
66	9827	6	0.01300457875
66	11589	7	0.013147336262
66	13307	8	0.01300409585
66	15025	9	0.013003857504
66	16787	10	0.013146621066
66	18505	11	0.013003386412
66	20223	12	0.013003153918
66	21961	13	0.013003082434
66	23465	14	0.01249
66	24969	15	0.01249
66	26473	16	0.01249
66	27977	17	0.01249
66	29481	18	0.01249
66	30985	19	0.01249
66	32489	20	0.01249
66	33993	21	0.01249
66	35497	22	0.01249
66	37001	23	0.01249
66	38505	24	0.01249
66	40010	25	0.01249
66	41514	26	0.01249
66	43018	27	0.01249
66	44522	28	0.01249
65	1191	1	3
65	2911	2	3
65	4629	3	3
65	6391	4	3
65	8109	5	3
65	9827	6	3
65	11589	7	3
65	13307	8	3
65	15025	9	3
65	16787	10	3
65	18505	11	3
65	20223	12	3
65	21961	13	3
65	23465	14	3
65	24969	15	3
65	26473	16	3
65	27977	17	3
65	29481	18	3
65	30985	19	3
65	32489	20	3
65	33993	21	3
65	35497	22	3
65	37001	23	3
65	38505	24	3
65	40010	25	3
65	41514	26	3
65	43018	27	3
65	44522	28	3
19	15	0.13	2.44929306
19	16	0.14	2.44929306
19	17	0.15	2.44929306
19	18	0.16	2.44929306
19	19	0.17	2.44929306
19	20	0.18	2.44929306
19	21	0.19	2.44929306
19	22	0.2	2.44929306
19	27	0.21	2.44929306
19	62	0.22	2.44929306
19	97	0.23	2.44929306
19	98	0.24	2.44929306
19	99	0.25	2.44929306
19	134	0.26	2.44929306
19	135	0.27	2.44929306
19	136	0.28	2.44929306
19	137	0.29	2.44929306
19	138	0.3	2.44929306
19	177	0.31	2.44929306
19	212	0.32	2.44929306
19	247	0.33	2.44929306
19	248	0.34	2.44929306
19	249	0.35	2.44929306
19	284	0.36	2.44929306
19	285	0.37	2.44929306
19	286	0.38	2.44929306
19	287	0.39	2.44929306
19	288	0.4	2.44929306
19	327	0.41	2.44929306
19	362	0.42	2.44929306
19	397	0.43	2.44929306
19	398	0.44	2.44929306
19	399	0.45	2.44929306
19	434	0.46	2.44929306
19	435	0.47	2.44929306
19	436	0.48	2.44929306
19	437	0.49	2.44929306
19	438	0.5	2.44929306
19	477	0.51	2.44929306
19	512	0.52	2.44929306
19	547	0.53	2.44929306
19	548	0.54	2.44929306
19	549	0.55	2.44929306
19	584	0.56	2.44929306
19	585	0.57	2.44929306
19	586	0.58	2.44929306
19	587	0.59	2.44929306
19	588	0.6	2.44929306
19	627	0.61	2.44929306
19	662	0.62	2.44929306
19	697	0.63	2.44929306
19	698	0.64	2.44929306
19	699	0.65	2.44929306
19	734	0.66	2.44929306
19	735	0.67	2.44929306
19	736	0.68	2.44929306
19	737	0.69	2.44929306
19	738	0.7	2.44929306
19	777	0.71	2.44929306
19	812	0.72	2.44929306
19	847	0.73	2.44929306
19	848	0.74	2.44929306
19	849	0.75	2.44929306
19	884	0.76	2.44929306
19	885	0.77	2.44929306
19	886	0.78	2.44929306
19	887	0.79	2.44929306
19	888	0.8	2.44929306
19	927	0.81	2.44929306
19	962	0.82	2.44929306
19	997	0.83	2.44929306
19	998	0.84	2.44929306
19	999	0.85	2.44929306
19	1034	0.86	2.44929306
19	1035	0.87	2.44929306
19	1036	0.88	2.44929306
19	1037	0.89	2.44929306
19	1038	0.9	2.44929306
19	1077	0.91	2.44929306
19	1112	0.92	2.44929306
19	1147	0.93	2.44929306
19	1148	0.94	2.44929306
19	1149	0.95	2.44929306
19	1184	0.96	2.44929306
19	1185	0.97	2.44929306
19	1186	0.98	2.44929306
19	1187	0.99	2.44929306
19	1192	1	2.44929306
19	1231	1.01	2.44929306
19	1266	1.02	2.44929306
19	1301	1.03	2.44929306
19	1302	1.04	2.44929306
19	1303	1.05	2.44929306
19	1338	1.06	2.44929306
19	1339	1.07	2.44929306
19	1340	1.08	2.44929306
19	1341	1.09	2.44929306
19	1342	1.1	2.44929306
19	1382	1.11	2.44929306
19	1417	1.12	2.44929306
19	1452	1.13	2.44929306
19	1453	1.14	2.44929306
19	1454	1.15	2.44929306
19	1489	1.16	2.44929306
19	1490	1.17	2.44929306
19	1491	1.18	2.44929306
19	1492	1.19	2.44929306
19	1493	1.2	2.44929306
19	1533	1.21	2.44929306
19	1568	1.22	2.44929306
19	1603	1.23	2.44929306
19	1604	1.24	2.44929306
19	1605	1.25	2.44929306
19	1640	1.26	2.44929306
19	1641	1.27	2.44929306
19	1642	1.28	2.44929306
19	1643	1.29	2.44929306
19	1644	1.3	2.44929306
19	1684	1.31	2.44929306
19	1931	1.32	2.44929306
19	1966	1.33	2.44929306
19	1967	1.34	2.44929306
19	1968	1.35	2.44929306
19	2004	1.36	2.44929306
19	2005	1.37	2.44929306
19	2006	1.38	2.44929306
19	2007	1.39	2.44929306
19	2008	1.4	2.44929306
19	2047	1.41	2.44929306
19	2082	1.42	2.44929306
19	2117	1.43	2.44929306
19	2118	1.44	2.44929306
19	2119	1.45	2.44929306
19	2154	1.46	2.44929306
19	2155	1.47	2.44929306
19	2156	1.48	2.44929306
19	2157	1.49	2.44929306
19	2158	1.5	2.44929306
19	2197	1.51	2.44929306
19	2232	1.52	2.44929306
19	2267	1.53	2.44929306
19	2268	1.54	2.44929306
19	2269	1.55	2.44929306
19	2304	1.56	2.44929306
19	2305	1.57	2.44929306
19	2306	1.58	2.44929306
19	2307	1.59	2.44929306
19	2308	1.6	2.44929306
19	2347	1.61	2.44929306
19	2382	1.62	2.44929306
19	2417	1.63	2.44929306
19	2418	1.64	2.44929306
19	2419	1.65	2.44929306
19	2454	1.66	2.44929306
19	2455	1.67	2.44929306
19	2456	1.68	2.44929306
19	2457	1.69	2.44929306
19	2458	1.7	2.44929306
19	2497	1.71	2.44929306
19	2532	1.72	2.44929306
19	2567	1.73	2.44929306
19	2568	1.74	2.44929306
19	2569	1.75	2.44929306
19	2604	1.76	2.44929306
19	2605	1.77	2.44929306
19	2606	1.78	2.44929306
19	2607	1.79	2.44929306
19	2608	1.8	2.44929306
19	2647	1.81	2.44929306
19	2682	1.82	2.44929306
19	2717	1.83	2.44929306
19	2718	1.84	2.44929306
19	2719	1.85	2.44929306
19	2754	1.86	2.44929306
19	2755	1.87	2.44929306
19	2756	1.88	2.44929306
19	2757	1.89	2.44929306
19	2758	1.9	2.44929306
19	2797	1.91	2.44929306
19	2832	1.92	2.44929306
19	2867	1.93	2.44929306
19	2868	1.94	2.44929306
19	2869	1.95	2.44929306
19	2904	1.96	2.44929306
19	2905	1.97	2.44929306
19	2906	1.98	2.44929306
19	2907	1.99	2.44929306
19	2912	2	2.44929306
19	2951	2.01	2.44929306
19	2986	2.02	2.44929306
19	3021	2.03	2.44929306
19	3022	2.04	2.44929306
19	3023	2.05	2.44929306
19	3058	2.06	2.44929306
19	3059	2.07	2.44929306
19	3060	2.08	2.44929306
19	3061	2.09	2.44929306
19	3062	2.1	2.44929306
19	3101	2.11	2.44929306
19	3136	2.12	2.44929306
19	3171	2.13	2.44929306
19	3172	2.14	2.44929306
19	3173	2.15	2.44929306
19	3208	2.16	2.44929306
19	3209	2.17	2.44929306
19	3210	2.18	2.44929306
19	3211	2.19	2.44929306
19	3212	2.2	2.44929306
19	3251	2.21	2.44929306
19	3286	2.22	2.44929306
19	3321	2.23	2.44929306
19	3322	2.24	2.44929306
19	3323	2.25	2.44929306
19	3358	2.26	2.44929306
19	3359	2.27	2.44929306
19	3360	2.28	2.44929306
19	3361	2.29	2.44929306
19	3362	2.3	2.44929306
19	3401	2.31	2.44929306
19	3436	2.32	2.44929306
19	3471	2.33	2.44929306
19	3472	2.34	2.44929306
19	3473	2.35	2.44929306
19	3509	2.36	2.44929306
19	3722	2.37	2.44929306
19	3723	2.38	2.44929306
19	3724	2.39	2.44929306
19	3725	2.4	2.44929306
19	3765	2.41	2.44929306
19	3800	2.42	2.44929306
19	3835	2.43	2.44929306
19	3836	2.44	2.44929306
19	3837	2.45	2.44929306
19	3872	2.46	2.44929306
19	3873	2.47	2.44929306
19	3874	2.48	2.44929306
19	3875	2.49	2.44929306
19	3876	2.5	2.44929306
19	3915	2.51	2.44929306
19	3950	2.52	2.44929306
19	3985	2.53	2.44929306
19	3986	2.54	2.44929306
19	3987	2.55	2.44929306
19	4022	2.56	2.44929306
19	4023	2.57	2.44929306
19	4024	2.58	2.44929306
19	4025	2.59	2.44929306
19	4026	2.6	2.44929306
19	4065	2.61	2.44929306
19	4100	2.62	2.44929306
19	4135	2.63	2.44929306
19	4136	2.64	2.44929306
19	4137	2.65	2.44929306
19	4172	2.66	2.44929306
19	4173	2.67	2.44929306
19	4174	2.68	2.44929306
19	4175	2.69	2.44929306
19	4176	2.7	2.44929306
19	4215	2.71	2.44929306
19	4250	2.72	2.44929306
19	4285	2.73	2.44929306
19	4286	2.74	2.44929306
19	4287	2.75	2.44929306
19	4322	2.76	2.44929306
19	4323	2.77	2.44929306
19	4324	2.78	2.44929306
19	4325	2.79	2.44929306
19	4326	2.8	2.44929306
19	4365	2.81	2.44929306
19	4400	2.82	2.44929306
19	4435	2.83	2.44929306
19	4436	2.84	2.44929306
19	4437	2.85	2.44929306
19	4472	2.86	2.44929306
19	4473	2.87	2.44929306
19	4474	2.88	2.44929306
19	4475	2.89	2.44929306
19	4476	2.9	2.44929306
19	4515	2.91	2.44929306
19	4550	2.92	2.44929306
19	4585	2.93	2.44929306
19	4586	2.94	2.44929306
19	4587	2.95	2.44929306
19	4622	2.96	2.44929306
19	4623	2.97	2.44929306
19	4624	2.98	2.44929306
19	4625	2.99	2.44929306
19	4630	3	2.44929306
19	4669	3.01	2.44929306
19	4704	3.02	2.44929306
19	4739	3.03	2.44929306
19	4740	3.04	2.44929306
19	4741	3.05	2.44929306
19	4776	3.06	2.44929306
19	4777	3.07	2.44929306
19	4778	3.08	2.44929306
19	4779	3.09	2.44929306
19	4780	3.1	2.44929306
19	4819	3.11	2.44929306
19	4854	3.12	2.44929306
19	4889	3.13	2.44929306
19	4890	3.14	2.44929306
19	4891	3.15	2.44929306
19	4926	3.16	2.44929306
19	4927	3.17	2.44929306
19	4928	3.18	2.44929306
19	4929	3.19	2.44929306
19	4930	3.2	2.44929306
19	4969	3.21	2.44929306
19	5004	3.22	2.44929306
19	5039	3.23	2.44929306
19	5040	3.24	2.44929306
19	5041	3.25	2.44929306
19	5076	3.26	2.44929306
19	5077	3.27	2.44929306
19	5078	3.28	2.44929306
19	5079	3.29	2.44929306
19	5080	3.3	2.44929306
19	5119	3.31	2.44929306
19	5154	3.32	2.44929306
19	5189	3.33	2.44929306
19	5190	3.34	2.44929306
19	5191	3.35	2.44929306
19	5226	3.36	2.44929306
19	5227	3.37	2.44929306
19	5228	3.38	2.44929306
19	5229	3.39	2.44929306
19	5230	3.4	2.44929306
19	5270	3.41	2.44929306
19	5561	3.42	2.44929306
19	5596	3.43	2.44929306
19	5597	3.44	2.44929306
19	5598	3.45	2.44929306
19	5634	3.46	2.44929306
19	5635	3.47	2.44929306
19	5636	3.48	2.44929306
19	5637	3.49	2.44929306
19	5638	3.5	2.44929306
19	5677	3.51	2.44929306
19	5712	3.52	2.44929306
19	5747	3.53	2.44929306
19	5748	3.54	2.44929306
19	5749	3.55	2.44929306
19	5784	3.56	2.44929306
19	5785	3.57	2.44929306
19	5786	3.58	2.44929306
19	5787	3.59	2.44929306
19	5788	3.6	2.44929306
19	5827	3.61	2.44929306
19	5862	3.62	2.44929306
19	5897	3.63	2.44929306
19	5898	3.64	2.44929306
19	5899	3.65	2.44929306
19	5934	3.66	2.44929306
19	5935	3.67	2.44929306
19	5936	3.68	2.44929306
19	5937	3.69	2.44929306
19	5938	3.7	2.44929306
19	5977	3.71	2.44929306
19	6012	3.72	2.44929306
19	6047	3.73	2.44929306
19	6048	3.74	2.44929306
19	6049	3.75	2.44929306
19	6084	3.76	2.44929306
19	6085	3.77	2.44929306
19	6086	3.78	2.44929306
19	6087	3.79	2.44929306
19	6088	3.8	2.44929306
19	6127	3.81	2.44929306
19	6162	3.82	2.44929306
19	6197	3.83	2.44929306
19	6198	3.84	2.44929306
19	6199	3.85	2.44929306
19	6234	3.86	2.44929306
19	6235	3.87	2.44929306
19	6236	3.88	2.44929306
19	6237	3.89	2.44929306
19	6238	3.9	2.44929306
19	6277	3.91	2.44929306
19	6312	3.92	2.44929306
19	6347	3.93	2.44929306
19	6348	3.94	2.44929306
19	6349	3.95	2.44929306
19	6384	3.96	2.44929306
19	6385	3.97	2.44929306
19	6386	3.98	2.44929306
19	6387	3.99	2.44929306
19	6392	4	2.44929306
19	6431	4.01	2.44929306
19	6466	4.02	2.44929306
19	6501	4.03	2.44929306
19	6502	4.04	2.44929306
19	6503	4.05	2.44929306
19	6538	4.06	2.44929306
19	6539	4.07	2.44929306
19	6540	4.08	2.44929306
19	6541	4.09	2.44929306
19	6542	4.1	2.44929306
19	6581	4.11	2.44929306
19	6616	4.12	2.44929306
19	6651	4.13	2.44929306
19	6652	4.14	2.44929306
19	6653	4.15	2.44929306
19	6688	4.16	2.44929306
19	6689	4.17	2.44929306
19	6690	4.18	2.44929306
19	6691	4.19	2.44929306
19	6692	4.2	2.44929306
19	6731	4.21	2.44929306
19	6766	4.22	2.44929306
19	6801	4.23	2.44929306
19	6802	4.24	2.44929306
19	6803	4.25	2.44929306
19	6838	4.26	2.44929306
19	6839	4.27	2.44929306
19	6840	4.28	2.44929306
19	6841	4.29	2.44929306
19	6842	4.3	2.44929306
19	6881	4.31	2.44929306
19	6916	4.32	2.44929306
19	6951	4.33	2.44929306
19	6952	4.34	2.44929306
19	6953	4.35	2.44929306
19	6988	4.36	2.44929306
19	6989	4.37	2.44929306
19	6990	4.38	2.44929306
19	6991	4.39	2.44929306
19	6992	4.4	2.44929306
19	7031	4.41	2.44929306
19	7066	4.42	2.44929306
19	7101	4.43	2.44929306
19	7102	4.44	2.44929306
19	7103	4.45	2.44929306
19	7139	4.46	2.44929306
19	7352	4.47	2.44929306
19	7353	4.48	2.44929306
19	7354	4.49	2.44929306
19	7355	4.5	2.44929306
19	7395	4.51	2.44929306
19	7430	4.52	2.44929306
19	7465	4.53	2.44929306
19	7466	4.54	2.44929306
19	7467	4.55	2.44929306
19	7502	4.56	2.44929306
19	7503	4.57	2.44929306
19	7504	4.58	2.44929306
19	7505	4.59	2.44929306
19	7506	4.6	2.44929306
19	7545	4.61	2.44929306
19	7580	4.62	2.44929306
19	7615	4.63	2.44929306
19	7616	4.64	2.44929306
19	7617	4.65	2.44929306
19	7652	4.66	2.44929306
19	7653	4.67	2.44929306
19	7654	4.68	2.44929306
19	7655	4.69	2.44929306
19	7656	4.7	2.44929306
19	7695	4.71	2.44929306
19	7730	4.72	2.44929306
19	7765	4.73	2.44929306
19	7766	4.74	2.44929306
19	7767	4.75	2.44929306
19	7802	4.76	2.44929306
19	7803	4.77	2.44929306
19	7804	4.78	2.44929306
19	7805	4.79	2.44929306
19	7806	4.8	2.44929306
19	7845	4.81	2.44929306
19	7880	4.82	2.44929306
19	7915	4.83	2.44929306
19	7916	4.84	2.44929306
19	7917	4.85	2.44929306
19	7952	4.86	2.44929306
19	7953	4.87	2.44929306
19	7954	4.88	2.44929306
19	7955	4.89	2.44929306
19	7956	4.9	2.44929306
19	7995	4.91	2.44929306
19	8030	4.92	2.44929306
19	8065	4.93	2.44929306
19	8066	4.94	2.44929306
19	8067	4.95	2.44929306
19	8102	4.96	2.44929306
19	8103	4.97	2.44929306
19	8104	4.98	2.44929306
19	8105	4.99	2.44929306
19	8110	5	2.44929306
19	8149	5.01	2.44929306
19	8184	5.02	2.44929306
19	8219	5.03	2.44929306
19	8220	5.04	2.44929306
19	8221	5.05	2.44929306
19	8256	5.06	2.44929306
19	8257	5.07	2.44929306
19	8258	5.08	2.44929306
19	8259	5.09	2.44929306
19	8260	5.1	2.44929306
19	8299	5.11	2.44929306
19	8334	5.12	2.44929306
19	8369	5.13	2.44929306
19	8370	5.14	2.44929306
19	8371	5.15	2.44929306
19	8406	5.16	2.44929306
19	8407	5.17	2.44929306
19	8408	5.18	2.44929306
19	8409	5.19	2.44929306
19	8410	5.2	2.44929306
19	8449	5.21	2.44929306
19	8484	5.22	2.44929306
19	8519	5.23	2.44929306
19	8520	5.24	2.44929306
19	8521	5.25	2.44929306
19	8556	5.26	2.44929306
19	8557	5.27	2.44929306
19	8558	5.28	2.44929306
19	8559	5.29	2.44929306
19	8560	5.3	2.44929306
19	8599	5.31	2.44929306
19	8634	5.32	2.44929306
19	8669	5.33	2.44929306
19	8670	5.34	2.44929306
19	8671	5.35	2.44929306
19	8706	5.36	2.44929306
19	8707	5.37	2.44929306
19	8708	5.38	2.44929306
19	8709	5.39	2.44929306
19	8710	5.4	2.44929306
19	8749	5.41	2.44929306
19	8784	5.42	2.44929306
19	8819	5.43	2.44929306
19	8820	5.44	2.44929306
19	8821	5.45	2.44929306
19	8856	5.46	2.44929306
19	8857	5.47	2.44929306
19	8858	5.48	2.44929306
19	8859	5.49	2.44929306
19	8860	5.5	2.44929306
19	8900	5.51	2.44929306
19	9147	5.52	2.44929306
19	9182	5.53	2.44929306
19	9183	5.54	2.44929306
19	9184	5.55	2.44929306
19	9220	5.56	2.44929306
19	9221	5.57	2.44929306
19	9222	5.58	2.44929306
19	9223	5.59	2.44929306
19	9224	5.6	2.44929306
19	9263	5.61	2.44929306
19	9298	5.62	2.44929306
19	9333	5.63	2.44929306
19	9334	5.64	2.44929306
19	9335	5.65	2.44929306
19	9370	5.66	2.44929306
19	9371	5.67	2.44929306
19	9372	5.68	2.44929306
19	9373	5.69	2.44929306
19	9374	5.7	2.44929306
19	9413	5.71	2.44929306
19	9448	5.72	2.44929306
19	9483	5.73	2.44929306
19	9484	5.74	2.44929306
19	9485	5.75	2.44929306
19	9520	5.76	2.44929306
19	9521	5.77	2.44929306
19	9522	5.78	2.44929306
19	9523	5.79	2.44929306
19	9524	5.8	2.44929306
19	9563	5.81	2.44929306
19	9598	5.82	2.44929306
19	9633	5.83	2.44929306
19	9634	5.84	2.44929306
19	9635	5.85	2.44929306
19	9670	5.86	2.44929306
19	9671	5.87	2.44929306
19	9672	5.88	2.44929306
19	9673	5.89	2.44929306
19	9674	5.9	2.44929306
19	9713	5.91	2.44929306
19	9748	5.92	2.44929306
19	9783	5.93	2.44929306
19	9784	5.94	2.44929306
19	9785	5.95	2.44929306
19	9820	5.96	2.44929306
19	9821	5.97	2.44929306
19	9822	5.98	2.44929306
19	9823	5.99	2.44929306
19	9828	6	2.44929306
19	9867	6.01	2.44929306
19	9902	6.02	2.44929306
19	9937	6.03	2.44929306
19	9938	6.04	2.44929306
19	9939	6.05	2.44929306
19	9974	6.06	2.44929306
19	9975	6.07	2.44929306
19	9976	6.08	2.44929306
19	9977	6.09	2.44929306
19	9978	6.1	2.44929306
19	10017	6.11	2.44929306
19	10052	6.12	2.44929306
19	10087	6.13	2.44929306
19	10088	6.14	2.44929306
19	10089	6.15	2.44929306
19	10124	6.16	2.44929306
19	10125	6.17	2.44929306
19	10126	6.18	2.44929306
19	10127	6.19	2.44929306
19	10128	6.2	2.44929306
19	10167	6.21	2.44929306
19	10202	6.22	2.44929306
19	10237	6.23	2.44929306
19	10238	6.24	2.44929306
19	10239	6.25	2.44929306
19	10274	6.26	2.44929306
19	10275	6.27	2.44929306
19	10276	6.28	2.44929306
19	10277	6.29	2.44929306
19	10278	6.3	2.44929306
19	10317	6.31	2.44929306
19	10352	6.32	2.44929306
19	10387	6.33	2.44929306
19	10388	6.34	2.44929306
19	10389	6.35	2.44929306
19	10424	6.36	2.44929306
19	10425	6.37	2.44929306
19	10426	6.38	2.44929306
19	10427	6.39	2.44929306
19	10428	6.4	2.44929306
19	10467	6.41	2.44929306
19	10502	6.42	2.44929306
19	10537	6.43	2.44929306
19	10538	6.44	2.44929306
19	10539	6.45	2.44929306
19	10574	6.46	2.44929306
19	10575	6.47	2.44929306
19	10576	6.48	2.44929306
19	10577	6.49	2.44929306
19	10578	6.5	2.44929306
19	10617	6.51	2.44929306
19	10652	6.52	2.44929306
19	10687	6.53	2.44929306
19	10688	6.54	2.44929306
19	10689	6.55	2.44929306
19	10725	6.56	2.44929306
19	10982	6.57	2.44929306
19	10983	6.58	2.44929306
19	10984	6.59	2.44929306
19	10985	6.6	2.44929306
19	11025	6.61	2.44929306
19	11060	6.62	2.44929306
19	11095	6.63	2.44929306
19	11096	6.64	2.44929306
19	11097	6.65	2.44929306
19	11132	6.66	2.44929306
19	11133	6.67	2.44929306
19	11134	6.68	2.44929306
19	11135	6.69	2.44929306
19	11136	6.7	2.44929306
19	11175	6.71	2.44929306
19	11210	6.72	2.44929306
19	11245	6.73	2.44929306
19	11246	6.74	2.44929306
19	11247	6.75	2.44929306
19	11282	6.76	2.44929306
19	11283	6.77	2.44929306
19	11284	6.78	2.44929306
19	11285	6.79	2.44929306
19	11286	6.8	2.44929306
19	11325	6.81	2.44929306
19	11360	6.82	2.44929306
19	11395	6.83	2.44929306
19	11396	6.84	2.44929306
19	11397	6.85	2.44929306
19	11432	6.86	2.44929306
19	11433	6.87	2.44929306
19	11434	6.88	2.44929306
19	11435	6.89	2.44929306
19	11436	6.9	2.44929306
19	11475	6.91	2.44929306
19	11510	6.92	2.44929306
19	11545	6.93	2.44929306
19	11546	6.94	2.44929306
19	11547	6.95	2.44929306
19	11582	6.96	2.44929306
19	11583	6.97	2.44929306
19	11584	6.98	2.44929306
19	11585	6.99	2.44929306
19	11590	7	2.44929306
19	11629	7.01	2.44929306
19	11664	7.02	2.44929306
19	11699	7.03	2.44929306
19	11700	7.04	2.44929306
19	11701	7.05	2.44929306
19	11736	7.06	2.44929306
19	11737	7.07	2.44929306
19	11738	7.08	2.44929306
19	11739	7.09	2.44929306
19	11740	7.1	2.44929306
19	11779	7.11	2.44929306
19	11814	7.12	2.44929306
19	11849	7.13	2.44929306
19	11850	7.14	2.44929306
19	11851	7.15	2.44929306
19	11886	7.16	2.44929306
19	11887	7.17	2.44929306
19	11888	7.18	2.44929306
19	11889	7.19	2.44929306
19	11890	7.2	2.44929306
19	11929	7.21	2.44929306
19	11964	7.22	2.44929306
19	11999	7.23	2.44929306
19	12000	7.24	2.44929306
19	12001	7.25	2.44929306
19	12036	7.26	2.44929306
19	12037	7.27	2.44929306
19	12038	7.28	2.44929306
19	12039	7.29	2.44929306
19	12040	7.3	2.44929306
19	12079	7.31	2.44929306
19	12114	7.32	2.44929306
19	12149	7.33	2.44929306
19	12150	7.34	2.44929306
19	12151	7.35	2.44929306
19	12186	7.36	2.44929306
19	12187	7.37	2.44929306
19	12188	7.38	2.44929306
19	12189	7.39	2.44929306
19	12190	7.4	2.44929306
19	12229	7.41	2.44929306
19	12264	7.42	2.44929306
19	12299	7.43	2.44929306
19	12300	7.44	2.44929306
19	12301	7.45	2.44929306
19	12336	7.46	2.44929306
19	12337	7.47	2.44929306
19	12338	7.48	2.44929306
19	12339	7.49	2.44929306
19	12340	7.5	2.44929306
19	12379	7.51	2.44929306
19	12414	7.52	2.44929306
19	12449	7.53	2.44929306
19	12450	7.54	2.44929306
19	12451	7.55	2.44929306
19	12486	7.56	2.44929306
19	12487	7.57	2.44929306
19	12488	7.58	2.44929306
19	12489	7.59	2.44929306
19	12490	7.6	2.44929306
19	12530	7.61	2.44929306
19	12777	7.62	2.44929306
19	12812	7.63	2.44929306
19	12813	7.64	2.44929306
19	12814	7.65	2.44929306
19	12850	7.66	2.44929306
19	12851	7.67	2.44929306
19	12852	7.68	2.44929306
19	12853	7.69	2.44929306
19	12854	7.7	2.44929306
19	12893	7.71	2.44929306
19	12928	7.72	2.44929306
19	12963	7.73	2.44929306
19	12964	7.74	2.44929306
19	12965	7.75	2.44929306
19	13000	7.76	2.44929306
19	13001	7.77	2.44929306
19	13002	7.78	2.44929306
19	13003	7.79	2.44929306
19	13004	7.8	2.44929306
19	13043	7.81	2.44929306
19	13078	7.82	2.44929306
19	13113	7.83	2.44929306
19	13114	7.84	2.44929306
19	13115	7.85	2.44929306
19	13150	7.86	2.44929306
19	13151	7.87	2.44929306
19	13152	7.88	2.44929306
19	13153	7.89	2.44929306
19	13154	7.9	2.44929306
19	13193	7.91	2.44929306
19	13228	7.92	2.44929306
19	13263	7.93	2.44929306
19	13264	7.94	2.44929306
19	13265	7.95	2.44929306
19	13300	7.96	2.44929306
19	13301	7.97	2.44929306
19	13302	7.98	2.44929306
19	13303	7.99	2.44929306
19	13308	8	2.44929306
19	13347	8.01	2.44929306
19	13382	8.02	2.44929306
19	13417	8.03	2.44929306
19	13418	8.04	2.44929306
19	13419	8.05	2.44929306
19	13454	8.06	2.44929306
19	13455	8.07	2.44929306
19	13456	8.08	2.44929306
19	13457	8.09	2.44929306
19	13458	8.1	2.44929306
19	13497	8.11	2.44929306
19	13532	8.12	2.44929306
19	13567	8.13	2.44929306
19	13568	8.14	2.44929306
19	13569	8.15	2.44929306
19	13604	8.16	2.44929306
19	13605	8.17	2.44929306
19	13606	8.18	2.44929306
19	13607	8.19	2.44929306
19	13608	8.2	2.44929306
19	13647	8.21	2.44929306
19	13682	8.22	2.44929306
19	13717	8.23	2.44929306
19	13718	8.24	2.44929306
19	13719	8.25	2.44929306
19	13754	8.26	2.44929306
19	13755	8.27	2.44929306
19	13756	8.28	2.44929306
19	13757	8.29	2.44929306
19	13758	8.3	2.44929306
19	13797	8.31	2.44929306
19	13832	8.32	2.44929306
19	13867	8.33	2.44929306
19	13868	8.34	2.44929306
19	13869	8.35	2.44929306
19	13904	8.36	2.44929306
19	13905	8.37	2.44929306
19	13906	8.38	2.44929306
19	13907	8.39	2.44929306
19	13908	8.4	2.44929306
19	13947	8.41	2.44929306
19	13982	8.42	2.44929306
19	14017	8.43	2.44929306
19	14018	8.44	2.44929306
19	14019	8.45	2.44929306
19	14054	8.46	2.44929306
19	14055	8.47	2.44929306
19	14056	8.48	2.44929306
19	14057	8.49	2.44929306
19	14058	8.5	2.44929306
19	14097	8.51	2.44929306
19	14132	8.52	2.44929306
19	14167	8.53	2.44929306
19	14168	8.54	2.44929306
19	14169	8.55	2.44929306
19	14204	8.56	2.44929306
19	14205	8.57	2.44929306
19	14206	8.58	2.44929306
19	14207	8.59	2.44929306
19	14208	8.6	2.44929306
19	14247	8.61	2.44929306
19	14282	8.62	2.44929306
19	14317	8.63	2.44929306
19	14318	8.64	2.44929306
19	14319	8.65	2.44929306
19	14355	8.66	2.44929306
19	14568	8.67	2.44929306
19	14569	8.68	2.44929306
19	14570	8.69	2.44929306
19	14571	8.7	2.44929306
19	14611	8.71	2.44929306
19	14646	8.72	2.44929306
19	14681	8.73	2.44929306
19	14682	8.74	2.44929306
19	14683	8.75	2.44929306
19	14718	8.76	2.44929306
19	14719	8.77	2.44929306
19	14720	8.78	2.44929306
19	14721	8.79	2.44929306
19	14722	8.8	2.44929306
19	14761	8.81	2.44929306
19	14796	8.82	2.44929306
19	14831	8.83	2.44929306
19	14832	8.84	2.44929306
19	14833	8.85	2.44929306
19	14868	8.86	2.44929306
19	14869	8.87	2.44929306
19	14870	8.88	2.44929306
19	14871	8.89	2.44929306
19	14872	8.9	2.44929306
19	14911	8.91	2.44929306
19	14946	8.92	2.44929306
19	14981	8.93	2.44929306
19	14982	8.94	2.44929306
19	14983	8.95	2.44929306
19	15018	8.96	2.44929306
19	15019	8.97	2.44929306
19	15020	8.98	2.44929306
19	15021	8.99	2.44929306
19	15026	9	2.44929306
19	15065	9.01	2.44929306
19	15100	9.02	2.44929306
19	15135	9.03	2.44929306
19	15136	9.04	2.44929306
19	15137	9.05	2.44929306
19	15172	9.06	2.44929306
19	15173	9.07	2.44929306
19	15174	9.08	2.44929306
19	15175	9.09	2.44929306
19	15176	9.1	2.44929306
19	15215	9.11	2.44929306
19	15250	9.12	2.44929306
19	15285	9.13	2.44929306
19	15286	9.14	2.44929306
19	15287	9.15	2.44929306
19	15322	9.16	2.44929306
19	15323	9.17	2.44929306
19	15324	9.18	2.44929306
19	15325	9.19	2.44929306
19	15326	9.2	2.44929306
19	15365	9.21	2.44929306
19	15400	9.22	2.44929306
19	15435	9.23	2.44929306
19	15436	9.24	2.44929306
19	15437	9.25	2.44929306
19	15472	9.26	2.44929306
19	15473	9.27	2.44929306
19	15474	9.28	2.44929306
19	15475	9.29	2.44929306
19	15476	9.3	2.44929306
19	15515	9.31	2.44929306
19	15550	9.32	2.44929306
19	15585	9.33	2.44929306
19	15586	9.34	2.44929306
19	15587	9.35	2.44929306
19	15622	9.36	2.44929306
19	15623	9.37	2.44929306
19	15624	9.38	2.44929306
19	15625	9.39	2.44929306
19	15626	9.4	2.44929306
19	15665	9.41	2.44929306
19	15700	9.42	2.44929306
19	15735	9.43	2.44929306
19	15736	9.44	2.44929306
19	15737	9.45	2.44929306
19	15772	9.46	2.44929306
19	15773	9.47	2.44929306
19	15774	9.48	2.44929306
19	15775	9.49	2.44929306
19	15776	9.5	2.44929306
19	15815	9.51	2.44929306
19	15850	9.52	2.44929306
19	15885	9.53	2.44929306
19	15886	9.54	2.44929306
19	15887	9.55	2.44929306
19	15922	9.56	2.44929306
19	15923	9.57	2.44929306
19	15924	9.58	2.44929306
19	15925	9.59	2.44929306
19	15926	9.6	2.44929306
19	15965	9.61	2.44929306
19	16000	9.62	2.44929306
19	16035	9.63	2.44929306
19	16036	9.64	2.44929306
19	16037	9.65	2.44929306
19	16072	9.66	2.44929306
19	16073	9.67	2.44929306
19	16074	9.68	2.44929306
19	16075	9.69	2.44929306
19	16076	9.7	2.44929306
19	16116	9.71	2.44929306
19	16407	9.72	2.44929306
19	16442	9.73	2.44929306
19	16443	9.74	2.44929306
19	16444	9.75	2.44929306
19	16480	9.76	2.44929306
19	16481	9.77	2.44929306
19	16482	9.78	2.44929306
19	16483	9.79	2.44929306
19	16484	9.8	2.44929306
19	16523	9.81	2.44929306
19	16558	9.82	2.44929306
19	16593	9.83	2.44929306
19	16594	9.84	2.44929306
19	16595	9.85	2.44929306
19	16630	9.86	2.44929306
19	16631	9.87	2.44929306
19	16632	9.88	2.44929306
19	16633	9.89	2.44929306
19	16634	9.9	2.44929306
19	16673	9.91	2.44929306
19	16708	9.92	2.44929306
19	16743	9.93	2.44929306
19	16744	9.94	2.44929306
19	16745	9.95	2.44929306
19	16780	9.96	2.44929306
19	16781	9.97	2.44929306
19	16782	9.98	2.44929306
19	16783	9.99	2.44929306
19	16788	10	2.44929306
19	16827	10.01	2.44929306
19	16862	10.02	2.44929306
19	16897	10.03	2.44929306
19	16898	10.04	2.44929306
19	16899	10.05	2.44929306
19	16934	10.06	2.44929306
19	16935	10.07	2.44929306
19	16936	10.08	2.44929306
19	16937	10.09	2.44929306
19	16938	10.1	2.44929306
19	16977	10.11	2.44929306
19	17012	10.12	2.44929306
19	17047	10.13	2.44929306
19	17048	10.14	2.44929306
19	17049	10.15	2.44929306
19	17084	10.16	2.44929306
19	17085	10.17	2.44929306
19	17086	10.18	2.44929306
19	17087	10.19	2.44929306
19	17088	10.2	2.44929306
19	17127	10.21	2.44929306
19	17162	10.22	2.44929306
19	17197	10.23	2.44929306
19	17198	10.24	2.44929306
19	17199	10.25	2.44929306
19	17234	10.26	2.44929306
19	17235	10.27	2.44929306
19	17236	10.28	2.44929306
19	17237	10.29	2.44929306
19	17238	10.3	2.44929306
19	17277	10.31	2.44929306
19	17312	10.32	2.44929306
19	17347	10.33	2.44929306
19	17348	10.34	2.44929306
19	17349	10.35	2.44929306
19	17384	10.36	2.44929306
19	17385	10.37	2.44929306
19	17386	10.38	2.44929306
19	17387	10.39	2.44929306
19	17388	10.4	2.44929306
19	17427	10.41	2.44929306
19	17462	10.42	2.44929306
19	17497	10.43	2.44929306
19	17498	10.44	2.44929306
19	17499	10.45	2.44929306
19	17534	10.46	2.44929306
19	17535	10.47	2.44929306
19	17536	10.48	2.44929306
19	17537	10.49	2.44929306
19	17538	10.5	2.44929306
19	17577	10.51	2.44929306
19	17612	10.52	2.44929306
19	17647	10.53	2.44929306
19	17648	10.54	2.44929306
19	17649	10.55	2.44929306
19	17684	10.56	2.44929306
19	17685	10.57	2.44929306
19	17686	10.58	2.44929306
19	17687	10.59	2.44929306
19	17688	10.6	2.44929306
19	17727	10.61	2.44929306
19	17762	10.62	2.44929306
19	17797	10.63	2.44929306
19	17798	10.64	2.44929306
19	17799	10.65	2.44929306
19	17834	10.66	2.44929306
19	17835	10.67	2.44929306
19	17836	10.68	2.44929306
19	17837	10.69	2.44929306
19	17838	10.7	2.44929306
19	17877	10.71	2.44929306
19	17912	10.72	2.44929306
19	17947	10.73	2.44929306
19	17948	10.74	2.44929306
19	17949	10.75	2.44929306
19	17985	10.76	2.44929306
19	18198	10.77	2.44929306
19	18199	10.78	2.44929306
19	18200	10.79	2.44929306
19	18201	10.8	2.44929306
19	18241	10.81	2.44929306
19	18276	10.82	2.44929306
19	18311	10.83	2.44929306
19	18312	10.84	2.44929306
19	18313	10.85	2.44929306
19	18348	10.86	2.44929306
19	18349	10.87	2.44929306
19	18350	10.88	2.44929306
19	18351	10.89	2.44929306
19	18352	10.9	2.44929306
19	18391	10.91	2.44929306
19	18426	10.92	2.44929306
19	18461	10.93	2.44929306
19	18462	10.94	2.44929306
19	18463	10.95	2.44929306
19	18498	10.96	2.44929306
19	18499	10.97	2.44929306
19	18500	10.98	2.44929306
19	18501	10.99	2.44929306
19	18506	11	2.44929306
19	18545	11.01	2.44929306
19	18580	11.02	2.44929306
19	18615	11.03	2.44929306
19	18616	11.04	2.44929306
19	18617	11.05	2.44929306
19	18652	11.06	2.44929306
19	18653	11.07	2.44929306
19	18654	11.08	2.44929306
19	18655	11.09	2.44929306
19	18656	11.1	2.44929306
19	18695	11.11	2.44929306
19	18730	11.12	2.44929306
19	18765	11.13	2.44929306
19	18766	11.14	2.44929306
19	18767	11.15	2.44929306
19	18802	11.16	2.44929306
19	18803	11.17	2.44929306
19	18804	11.18	2.44929306
19	18805	11.19	2.44929306
19	18806	11.2	2.44929306
19	18845	11.21	2.44929306
19	18880	11.22	2.44929306
19	18915	11.23	2.44929306
19	18916	11.24	2.44929306
19	18917	11.25	2.44929306
19	18952	11.26	2.44929306
19	18953	11.27	2.44929306
19	18954	11.28	2.44929306
19	18955	11.29	2.44929306
19	18956	11.3	2.44929306
19	18995	11.31	2.44929306
19	19030	11.32	2.44929306
19	19065	11.33	2.44929306
19	19066	11.34	2.44929306
19	19067	11.35	2.44929306
19	19102	11.36	2.44929306
19	19103	11.37	2.44929306
19	19104	11.38	2.44929306
19	19105	11.39	2.44929306
19	19106	11.4	2.44929306
19	19145	11.41	2.44929306
19	19180	11.42	2.44929306
19	19215	11.43	2.44929306
19	19216	11.44	2.44929306
19	19217	11.45	2.44929306
19	19252	11.46	2.44929306
19	19253	11.47	2.44929306
19	19254	11.48	2.44929306
19	19255	11.49	2.44929306
19	19256	11.5	2.44929306
19	19295	11.51	2.44929306
19	19330	11.52	2.44929306
19	19365	11.53	2.44929306
19	19366	11.54	2.44929306
19	19367	11.55	2.44929306
19	19402	11.56	2.44929306
19	19403	11.57	2.44929306
19	19404	11.58	2.44929306
19	19405	11.59	2.44929306
19	19406	11.6	2.44929306
19	19445	11.61	2.44929306
19	19480	11.62	2.44929306
19	19515	11.63	2.44929306
19	19516	11.64	2.44929306
19	19517	11.65	2.44929306
19	19552	11.66	2.44929306
19	19553	11.67	2.44929306
19	19554	11.68	2.44929306
19	19555	11.69	2.44929306
19	19556	11.7	2.44929306
19	19595	11.71	2.44929306
19	19630	11.72	2.44929306
19	19665	11.73	2.44929306
19	19666	11.74	2.44929306
19	19667	11.75	2.44929306
19	19702	11.76	2.44929306
19	19703	11.77	2.44929306
19	19704	11.78	2.44929306
19	19705	11.79	2.44929306
19	19706	11.8	2.44929306
19	19746	11.81	2.44929306
19	19993	11.82	2.44929306
19	20028	11.83	2.44929306
19	20029	11.84	2.44929306
19	20030	11.85	2.44929306
19	20066	11.86	2.44929306
19	20067	11.87	2.44929306
19	20068	11.88	2.44929306
19	20069	11.89	2.44929306
19	20070	11.9	2.44929306
19	20109	11.91	2.44929306
19	20144	11.92	2.44929306
19	20179	11.93	2.44929306
19	20180	11.94	2.44929306
19	20181	11.95	2.44929306
19	20216	11.96	2.44929306
19	20217	11.97	2.44929306
19	20218	11.98	2.44929306
19	20219	11.99	2.44929306
19	20224	12	2.44929306
19	20263	12.01	2.44929306
19	20298	12.02	2.44929306
19	20333	12.03	2.44929306
19	20334	12.04	2.44929306
19	20335	12.05	2.44929306
19	20370	12.06	2.44929306
19	20371	12.07	2.44929306
19	20372	12.08	2.44929306
19	20373	12.09	2.44929306
19	20374	12.1	2.44929306
19	20413	12.11	2.44929306
19	20448	12.12	2.44929306
19	20483	12.13	2.44929306
19	20484	12.14	2.44929306
19	20485	12.15	2.44929306
19	20520	12.16	2.44929306
19	20521	12.17	2.44929306
19	20522	12.18	2.44929306
19	20523	12.19	2.44929306
19	20524	12.2	2.44929306
19	20563	12.21	2.44929306
19	20598	12.22	2.44929306
19	20633	12.23	2.44929306
19	20634	12.24	2.44929306
19	20635	12.25	2.44929306
19	20670	12.26	2.44929306
19	20671	12.27	2.44929306
19	20672	12.28	2.44929306
19	20673	12.29	2.44929306
19	20674	12.3	2.44929306
19	20713	12.31	2.44929306
19	20748	12.32	2.44929306
19	20783	12.33	2.44929306
19	20784	12.34	2.44929306
19	20785	12.35	2.44929306
19	20820	12.36	2.44929306
19	20821	12.37	2.44929306
19	20822	12.38	2.44929306
19	20823	12.39	2.44929306
19	20824	12.4	2.44929306
19	20863	12.41	2.44929306
19	20898	12.42	2.44929306
19	20933	12.43	2.44929306
19	20934	12.44	2.44929306
19	20935	12.45	2.44929306
19	20970	12.46	2.44929306
[...]
2	63336	55.23	931.55726268403
2	63337	55.24	931.69615168374
2	63338	55.25	931.83504068346
2	63357	55.26	931.97392968317
2	63358	55.27	932.11281868289
2	63359	55.28	932.2517076826
2	63360	55.29	932.39059668231
2	63361	55.3	932.52948568203
2	63364	55.31	932.66837468175
2	63365	55.32	932.80726368146
2	63384	55.33	932.94615268118
2	63385	55.34	933.0850416809
2	63386	55.35	933.22393068061
2	63405	55.36	933.36281968033
2	63406	55.37	933.50170868005
2	63407	55.38	933.64059767977
2	63408	55.39	933.77948667949
2	63409	55.4	933.91837567921
2	63412	55.41	934.05726467893
2	63413	55.42	934.19615367865
2	63432	55.43	934.33504267837
2	63433	55.44	934.47393167809
2	63434	55.45	934.61282067782
2	63453	55.46	934.75170967754
2	63454	55.47	934.89059867726
2	63455	55.48	935.02948767698
2	63456	55.49	935.16837667671
2	63457	55.5	935.30726567643
2	63460	55.51	935.44615467616
2	63461	55.52	935.58504367588
2	63480	55.53	935.72393267561
2	63481	55.54	935.86282167533
2	63482	55.55	936.00171067506
2	63501	55.56	936.14059967479
2	63502	55.57	936.27948867451
2	63503	55.58	936.41837767424
2	63504	55.59	936.55726667397
2	63505	55.6	936.6961556737
2	63508	55.61	936.83504467343
2	63509	55.62	936.97393367316
2	63528	55.63	937.11282267289
2	63529	55.64	937.25171167262
2	63530	55.65	937.39060067235
2	63549	55.66	937.52948967208
2	63550	55.67	937.66837867181
2	63551	55.68	937.80726767154
2	63552	55.69	937.94615667127
2	63553	55.7	938.08504567101
2	63556	55.71	938.22393467074
2	63557	55.72	938.36282367047
2	63576	55.73	938.50171267021
2	63577	55.74	938.64060166994
2	63578	55.75	938.77949066968
2	63597	55.76	938.91837966941
2	63598	55.77	939.05726866915
2	63599	55.78	939.19615766888
2	63600	55.79	939.33504666862
2	63601	55.8	939.47393566836
2	63604	55.81	939.61282466809
2	63605	55.82	939.75171366783
2	63624	55.83	939.89060266757
2	63625	55.84	940.02949166731
2	63626	55.85	940.16838066705
2	63645	55.86	940.30726966679
2	63646	55.87	940.44615866653
2	63647	55.88	940.58504766627
2	63648	55.89	940.72393666601
2	63649	55.9	940.86282566575
2	63652	55.91	941.00171466549
2	63653	55.92	941.14060366523
2	63672	55.93	941.27949266497
2	63673	55.94	941.41838166472
2	63674	55.95	941.55727066446
2	63693	55.96	941.6961596642
2	63694	55.97	941.83504866395
2	63695	55.98	941.97393766369
2	63696	55.99	942.11282666343
2	63699	56	942.25171566318
2	63702	56.01	942.39060466292
2	63703	56.02	942.52949366267
2	63722	56.03	942.66838266242
2	63723	56.04	942.80727166216
2	63724	56.05	942.94616066191
2	63743	56.06	943.08504966166
2	63744	56.07	943.2239386614
2	63745	56.08	943.36282766115
2	63746	56.09	943.5017166609
2	63747	56.1	943.64060566065
2	63750	56.11	943.7794946604
2	63751	56.12	943.91838366015
2	63770	56.13	944.0572726599
2	63771	56.14	944.19616165965
2	63772	56.15	944.3350506594
2	63791	56.16	944.47393965915
2	63792	56.17	944.6128286589
2	63793	56.18	944.75171765866
2	63794	56.19	944.89060665841
2	63795	56.2	945.02949565816
2	63798	56.21	945.16838465791
2	63799	56.22	945.30727365767
2	63818	56.23	945.44616265742
2	63819	56.24	945.58505165718
2	63820	56.25	945.72394065693
2	63839	56.26	945.86282965669
2	63840	56.27	946.00171865644
2	63841	56.28	946.1406076562
2	63842	56.29	946.27949665595
2	63843	56.3	946.41838565571
2	63846	56.31	946.55727465547
2	63847	56.32	946.69616365522
2	63866	56.33	946.83505265498
2	63867	56.34	946.97394165474
2	63868	56.35	947.1128306545
2	63887	56.36	947.25171965426
2	63888	56.37	947.39060865402
2	63889	56.38	947.52949765378
2	63890	56.39	947.66838665354
2	63891	56.4	947.8072756533
2	63894	56.41	947.94616465306
2	63895	56.42	948.08505365282
2	63914	56.43	948.22394265258
2	63915	56.44	948.36283165234
2	63916	56.45	948.5017206521
2	63935	56.46	948.64060965187
2	63936	56.47	948.77949865163
2	63937	56.48	948.91838765139
2	63938	56.49	949.05727665116
2	63939	56.5	949.19616565092
2	63942	56.51	949.33505465069
2	63943	56.52	949.47394365045
2	63962	56.53	949.61283265022
2	63963	56.54	949.75172164998
2	63964	56.55	949.89061064975
2	63983	56.56	950.02949964951
2	63984	56.57	950.16838864928
2	63985	56.58	950.30727764905
2	63986	56.59	950.44616664881
2	63987	56.6	950.58505564858
2	63990	56.61	950.72394464835
2	63991	56.62	950.86283364812
2	64010	56.63	951.00172264789
2	64011	56.64	951.14061164766
2	64012	56.65	951.27950064743
2	64031	56.66	951.4183896472
2	64032	56.67	951.55727864697
2	64033	56.68	951.69616764674
2	64034	56.69	951.83505664651
2	64035	56.7	951.97394564628
2	64038	56.71	952.11283464605
2	64039	56.72	952.25172364582
2	64058	56.73	952.3906126456
2	64059	56.74	952.52950164537
2	64060	56.75	952.66839064514
2	64079	56.76	952.80727964491
2	64080	56.77	952.94616864469
2	64081	56.78	953.08505764446
2	64082	56.79	953.22394664424
2	64083	56.8	953.36283564401
2	64086	56.81	953.50172464379
2	64087	56.82	953.64061364356
2	64106	56.83	953.77950264334
2	64107	56.84	953.91839164312
2	64108	56.85	954.05728064289
2	64127	56.86	954.19616964267
2	64128	56.87	954.33505864245
2	64129	56.88	954.47394764222
2	64130	56.89	954.612836642
2	64131	56.9	954.75172564178
2	64134	56.91	954.89061464156
2	64135	56.92	955.02950364134
2	64154	56.93	955.16839264112
2	64155	56.94	955.3072816409
2	64156	56.95	955.44617064068
2	64175	56.96	955.58505964046
2	64176	56.97	955.72394864024
2	64177	56.98	955.86283764002
2	64178	56.99	956.0017266398
2	64181	57	956.14061563958
2	64184	57.01	956.27950463937
2	64185	57.02	956.41839363915
2	64204	57.03	956.55728263893
2	64205	57.04	956.69617163871
2	64206	57.05	956.8350606385
2	64225	57.06	956.97394963828
2	64226	57.07	957.11283863806
2	64227	57.08	957.25172763785
2	64228	57.09	957.39061663763
2	64229	57.1	957.52950563742
2	64232	57.11	957.66839463721
2	64233	57.12	957.80728363699
2	64252	57.13	957.94617263678
2	64253	57.14	958.08506163656
2	64254	57.15	958.22395063635
2	64273	57.16	958.36283963614
2	64274	57.17	958.50172863593
2	64275	57.18	958.64061763571
2	64276	57.19	958.7795066355
2	64277	57.2	958.91839563529
2	64280	57.21	959.05728463508
2	64281	57.22	959.19617363487
2	64300	57.23	959.33506263466
2	64301	57.24	959.47395163445
2	64302	57.25	959.61284063424
2	64321	57.26	959.75172963403
2	64322	57.27	959.89061863382
2	64323	57.28	960.02950763361
2	64324	57.29	960.1683966334
2	64325	57.3	960.30728563319
2	64328	57.31	960.44617463299
2	64329	57.32	960.58506363278
2	64348	57.33	960.72395263257
2	64349	57.34	960.86284163236
2	64350	57.35	961.00173063216
2	64369	57.36	961.14061963195
2	64370	57.37	961.27950863174
2	64371	57.38	961.41839763154
2	64372	57.39	961.55728663133
2	64373	57.4	961.69617563113
2	64376	57.41	961.83506463092
2	64377	57.42	961.97395363072
2	64396	57.43	962.11284263052
2	64397	57.44	962.25173163031
2	64398	57.45	962.39062063011
2	64417	57.46	962.52950962991
2	64418	57.47	962.6683986297
2	64419	57.48	962.8072876295
2	64420	57.49	962.9461766293
2	64421	57.5	963.0850656291
2	64424	57.51	963.22395462889
2	64425	57.52	963.36284362869
2	64444	57.53	963.50173262849
2	64445	57.54	963.64062162829
2	64446	57.55	963.77951062809
2	64465	57.56	963.91839962789
2	64466	57.57	964.05728862769
2	64467	57.58	964.19617762749
2	64468	57.59	964.33506662729
2	64469	57.6	964.4739556271
2	64472	57.61	964.6128446269
2	64473	57.62	964.7517336267
2	64492	57.63	964.8906226265
2	64493	57.64	965.0295116263
2	64494	57.65	965.16840062611
2	64513	57.66	965.30728962591
2	64514	57.67	965.44617862571
2	64515	57.68	965.58506762552
2	64516	57.69	965.72395662532
2	64517	57.7	965.86284562513
2	64520	57.71	966.00173462493
2	64521	57.72	966.14062362474
2	64540	57.73	966.27951262454
2	64541	57.74	966.41840162435
2	64542	57.75	966.55729062415
2	64561	57.76	966.69617962396
2	64562	57.77	966.83506862377
2	64563	57.78	966.97395762357
2	64564	57.79	967.11284662338
2	64565	57.8	967.25173562319
2	64568	57.81	967.39062462299
2	64569	57.82	967.5295136228
2	64588	57.83	967.66840262261
2	64589	57.84	967.80729162242
2	64590	57.85	967.94618062223
2	64609	57.86	968.08506962204
2	64610	57.87	968.22395862185
2	64611	57.88	968.36284762166
2	64612	57.89	968.50173662147
2	64613	57.9	968.64062562128
2	64616	57.91	968.77951462109
2	64617	57.92	968.9184036209
2	64636	57.93	969.05729262071
2	64637	57.94	969.19618162052
2	64638	57.95	969.33507062033
2	64657	57.96	969.47395962015
2	64658	57.97	969.61284861996
2	64659	57.98	969.75173761977
2	64660	57.99	969.89062661958
2	64663	58	970.0295156194
2	64666	58.01	970.16840461921
2	64667	58.02	970.30729361903
2	64686	58.03	970.44618261884
2	64687	58.04	970.58507161865
2	64688	58.05	970.72396061847
2	64707	58.06	970.86284961828
2	64708	58.07	971.0017386181
2	64709	58.08	971.14062761791
2	64710	58.09	971.27951661773
2	64711	58.1	971.41840561755
2	64714	58.11	971.55729461736
2	64715	58.12	971.69618361718
2	64734	58.13	971.835072617
2	64735	58.14	971.97396161681
2	64736	58.15	972.11285061663
2	64755	58.16	972.25173961645
2	64756	58.17	972.39062861627
2	64757	58.18	972.52951761609
2	64758	58.19	972.66840661591
2	64759	58.2	972.80729561573
2	64762	58.21	972.94618461554
2	64763	58.22	973.08507361536
2	64782	58.23	973.22396261518
2	64783	58.24	973.362851615
2	64784	58.25	973.50174061482
2	64803	58.26	973.64062961465
2	64804	58.27	973.77951861447
2	64805	58.28	973.91840761429
2	64806	58.29	974.05729661411
2	64807	58.3	974.19618561393
2	64810	58.31	974.33507461375
2	64811	58.32	974.47396361358
2	64830	58.33	974.6128526134
2	64831	58.34	974.75174161322
2	64832	58.35	974.89063061304
2	64851	58.36	975.02951961287
2	64852	58.37	975.16840861269
2	64853	58.38	975.30729761252
2	64854	58.39	975.44618661234
2	64855	58.4	975.58507561217
2	64858	58.41	975.72396461199
2	64859	58.42	975.86285361182
2	64878	58.43	976.00174261164
2	64879	58.44	976.14063161147
2	64880	58.45	976.27952061129
2	64899	58.46	976.41840961112
2	64900	58.47	976.55729861095
2	64901	58.48	976.69618761077
2	64902	58.49	976.8350766106
2	64903	58.5	976.97396561043
2	64906	58.51	977.11285461025
2	64907	58.52	977.25174361008
2	64926	58.53	977.39063260991
2	64927	58.54	977.52952160974
2	64928	58.55	977.66841060957
2	64947	58.56	977.8072996094
2	64948	58.57	977.94618860923
2	64949	58.58	978.08507760906
2	64950	58.59	978.22396660889
2	64951	58.6	978.36285560872
2	64954	58.61	978.50174460855
2	64955	58.62	978.64063360838
2	64974	58.63	978.77952260821
2	64975	58.64	978.91841160804
2	64976	58.65	979.05730060787
2	64995	58.66	979.1961896077
2	64996	58.67	979.33507860753
2	64997	58.68	979.47396760736
2	64998	58.69	979.6128566072
2	64999	58.7	979.75174560703
2	65002	58.71	979.89063460686
2	65003	58.72	980.0295236067
2	65022	58.73	980.16841260653
2	65023	58.74	980.30730160636
2	65024	58.75	980.4461906062
2	65043	58.76	980.58507960603
2	65044	58.77	980.72396860587
2	65045	58.78	980.8628576057
2	65046	58.79	981.00174660554
2	65047	58.8	981.14063560537
2	65050	58.81	981.27952460521
2	65051	58.82	981.41841360504
2	65070	58.83	981.55730260488
2	65071	58.84	981.69619160471
2	65072	58.85	981.83508060455
2	65091	58.86	981.97396960439
2	65092	58.87	982.11285860422
2	65093	58.88	982.25174760406
2	65094	58.89	982.3906366039
2	65095	58.9	982.52952560374
2	65098	58.91	982.66841460358
2	65099	58.92	982.80730360341
2	65118	58.93	982.94619260325
2	65119	58.94	983.08508160309
2	65120	58.95	983.22397060293
2	65139	58.96	983.36285960277
2	65140	58.97	983.50174860261
2	65141	58.98	983.64063760245
2	65142	58.99	983.77952660229
2	65145	59	983.91841560213
2	65148	59.01	984.05730460197
2	65149	59.02	984.19619360181
2	65168	59.03	984.33508260165
2	65169	59.04	984.47397160149
2	65170	59.05	984.61286060133
2	65189	59.06	984.75174960118
2	65190	59.07	984.89063860102
2	65191	59.08	985.02952760086
2	65192	59.09	985.1684166007
2	65193	59.1	985.30730560055
2	65196	59.11	985.44619460039
2	65197	59.12	985.58508360023
2	65216	59.13	985.72397260008
2	65217	59.14	985.86286159992
2	65218	59.15	986.00175059976
2	65237	59.16	986.14063959961
2	65238	59.17	986.27952859945
2	65239	59.18	986.4184175993
2	65240	59.19	986.55730659914
2	65241	59.2	986.69619559899
2	65244	59.21	986.83508459883
2	65245	59.22	986.97397359868
2	65264	59.23	987.11286259852
2	65265	59.24	987.25175159837
2	65266	59.25	987.39064059822
2	65285	59.26	987.52952959806
2	65286	59.27	987.66841859791
2	65287	59.28	987.80730759776
2	65288	59.29	987.94619659761
2	65289	59.3	988.08508559745
2	65292	59.31	988.2239745973
2	65293	59.32	988.36286359715
2	65312	59.33	988.501752597
2	65313	59.34	988.64064159685
2	65314	59.35	988.77953059669
2	65333	59.36	988.91841959654
2	65334	59.37	989.05730859639
2	65335	59.38	989.19619759624
2	65336	59.39	989.33508659609
2	65337	59.4	989.47397559594
2	65340	59.41	989.61286459579
2	65341	59.42	989.75175359564
2	65360	59.43	989.89064259549
2	65361	59.44	990.02953159534
2	65362	59.45	990.1684205952
2	65381	59.46	990.30730959505
2	65382	59.47	990.4461985949
2	65383	59.48	990.58508759475
2	65384	59.49	990.7239765946
2	65385	59.5	990.86286559446
2	65388	59.51	991.00175459431
2	65389	59.52	991.14064359416
2	65408	59.53	991.27953259401
2	65409	59.54	991.41842159387
2	65410	59.55	991.55731059372
2	65429	59.56	991.69619959357
2	65430	59.57	991.83508859343
2	65431	59.58	991.97397759328
2	65432	59.59	992.11286659314
2	65433	59.6	992.25175559299
2	65436	59.61	992.39064459285
2	65437	59.62	992.5295335927
2	65456	59.63	992.66842259256
2	65457	59.64	992.80731159241
2	65458	59.65	992.94620059227
2	65477	59.66	993.08508959212
2	65478	59.67	993.22397859198
2	65479	59.68	993.36286759183
2	65480	59.69	993.50175659169
2	65481	59.7	993.64064559155
2	65484	59.71	993.77953459141
2	65485	59.72	993.91842359126
2	65504	59.73	994.05731259112
2	65505	59.74	994.19620159098
2	65506	59.75	994.33509059084
2	65525	59.76	994.47397959069
2	65526	59.77	994.61286859055
2	65527	59.78	994.75175759041
2	65528	59.79	994.89064659027
2	65529	59.8	995.02953559013
2	65532	59.81	995.16842458999
2	65533	59.82	995.30731358985
2	65552	59.83	995.44620258971
2	65553	59.84	995.58509158957
2	65554	59.85	995.72398058943
2	65573	59.86	995.86286958929
2	65574	59.87	996.00175858915
2	65575	59.88	996.14064758901
2	65576	59.89	996.27953658887
2	65577	59.9	996.41842558873
2	65580	59.91	996.55731458859
2	65581	59.92	996.69620358845
2	65600	59.93	996.83509258832
2	65601	59.94	996.97398158818
2	65602	59.95	997.11287058804
2	65621	59.96	997.2517595879
2	65622	59.97	997.39064858777
2	65623	59.98	997.52953758763
2	65624	59.99	997.66842658749
2	65627	60	997.80731558736
2	65630	60.01	997.94620458722
2	65631	60.02	998.08509358708
2	65650	60.03	998.22398258695
2	65651	60.04	998.36287158681
2	65652	60.05	998.50176058668
2	65671	60.06	998.64064958654
2	65672	60.07	998.77953858641
2	65673	60.08	998.91842758627
2	65674	60.09	999.05731658614
2	65675	60.1	999.196205586
2	65678	60.11	999.33509458587
2	65679	60.12	999.47398358573
2	65698	60.13	999.6128725856
2	65699	60.14	999.75176158547
2	65700	60.15	999.89065058533
2	65719	60.16	1000.0295395852
2	65720	60.17	1000.1684285851
2	65721	60.18	1000.3073175849
2	65722	60.19	1000.4462065848
2	65723	60.2	1000.5850955847
2	65726	60.21	1000.7239845845
2	65727	60.22	1000.8628735844
2	65746	60.23	1001.0017625843
2	65747	60.24	1001.1406515841
2	65748	60.25	1001.279540584
2	65767	60.26	1001.4184295839
2	65768	60.27	1001.5573185837
2	65769	60.28	1001.6962075836
2	65770	60.29	1001.8350965835
2	65771	60.3	1001.9739855834
2	65774	60.31	1002.1128745832
2	65775	60.32	1002.2517635831
2	65794	60.33	1002.390652583
2	65795	60.34	1002.5295415828
2	65796	60.35	1002.6684305827
2	65815	60.36	1002.8073195826
2	65816	60.37	1002.9462085824
2	65817	60.38	1003.0850975823
2	65818	60.39	1003.2239865822
2	65819	60.4	1003.3628755821
2	65822	60.41	1003.5017645819
2	65823	60.42	1003.6406535818
2	65842	60.43	1003.7795425817
2	65843	60.44	1003.9184315816
2	65844	60.45	1004.0573205814
2	65863	60.46	1004.1962095813
2	65864	60.47	1004.3350985812
2	65865	60.48	1004.473987581
2	65866	60.49	1004.6128765809
2	65867	60.5	1004.7517655808
2	65870	60.51	1004.8906545807
2	65871	60.52	1005.0295435805
2	65890	60.53	1005.1684325804
2	65891	60.54	1005.3073215803
2	65892	60.55	1005.4462105802
2	65911	60.56	1005.58509958
2	65912	60.57	1005.7239885799
2	65913	60.58	1005.8628775798
2	65914	60.59	1006.0017665797
2	65915	60.6	1006.1406555795
2	65918	60.61	1006.2795445794
2	65919	60.62	1006.4184335793
2	65938	60.63	1006.5573225792
2	65939	60.64	1006.696211579
2	65940	60.65	1006.8351005789
2	65959	60.66	1006.9739895788
2	65960	60.67	1007.1128785787
2	65961	60.68	1007.2517675786
2	65962	60.69	1007.3906565784
2	65963	60.7	1007.5295455783
2	65966	60.71	1007.6684345782
2	65967	60.72	1007.8073235781
2	65986	60.73	1007.9462125779
2	65987	60.74	1008.0851015778
2	65988	60.75	1008.2239905777
2	66007	60.76	1008.3628795776
2	66008	60.77	1008.5017685775
2	66009	60.78	1008.6406575773
2	66010	60.79	1008.7795465772
2	66011	60.8	1008.9184355771
2	66014	60.81	1009.057324577
2	66015	60.82	1009.1962135769
2	66034	60.83	1009.3351025767
2	66035	60.84	1009.4739915766
2	66036	60.85	1009.6128805765
2	66055	60.86	1009.7517695764
2	66056	60.87	1009.8906585763
2	66057	60.88	1010.0295475761
2	66058	60.89	1010.168436576
2	66059	60.9	1010.3073255759
2	66062	60.91	1010.4462145758
2	66063	60.92	1010.5851035757
2	66082	60.93	1010.7239925755
2	66083	60.94	1010.8628815754
2	66084	60.95	1011.0017705753
2	66103	60.96	1011.1406595752
2	66104	60.97	1011.2795485751
2	66105	60.98	1011.418437575
2	66106	60.99	1011.5573265748
2	66109	61	1011.6962155747
2	66112	61.01	1011.8351045746
2	66113	61.02	1011.9739935745
2	66132	61.03	1012.1128825744
2	66133	61.04	1012.2517715743
2	66134	61.05	1012.3906605741
2	66153	61.06	1012.529549574
2	66154	61.07	1012.6684385739
2	66155	61.08	1012.8073275738
2	66156	61.09	1012.9462165737
2	66157	61.1	1013.0851055736
2	66160	61.11	1013.2239945734
2	66161	61.12	1013.3628835733
2	66180	61.13	1013.5017725732
2	66181	61.14	1013.6406615731
2	66182	61.15	1013.779550573
2	66201	61.16	1013.9184395729
2	66202	61.17	1014.0573285728
2	66203	61.18	1014.1962175726
2	66204	61.19	1014.3351065725
2	66205	61.2	1014.4739955724
2	66208	61.21	1014.6128845723
2	66209	61.22	1014.7517735722
2	66228	61.23	1014.8906625721
2	66229	61.24	1015.029551572
2	66230	61.25	1015.1684405719
2	66249	61.26	1015.3073295717
2	66250	61.27	1015.4462185716
2	66251	61.28	1015.5851075715
2	66252	61.29	1015.7239965714
2	66253	61.3	1015.8628855713
2	66256	61.31	1016.0017745712
2	66257	61.32	1016.1406660221
2	66268	61.33	1016.2795647778
2	66269	61.34	1016.4184755972
2	66270	61.35	1016.5574031456
2	66271	61.36	1016.6963519969
2	66272	61.37	1016.8353266355
2	66273	61.38	1016.9743314577
2	66274	61.39	1017.1133707735
2	66275	61.4	1017.2524488086
2	66277	61.41	1017.3915697058
2	66278	61.42	1017.5307375265
2	66289	61.43	1017.6699562528
2	66290	61.44	1017.8092297883
2	66291	61.45	1017.9485619604
2	66292	61.46	1018.0879565212
2	66293	61.47	1018.2274171495
2	66294	61.48	1018.3669474518
2	66295	61.49	1018.5065509638
2	66296	61.5	1018.646231152
2	66298	61.51	1018.785991415
2	66299	61.52	1018.9258350845
2	66310	61.53	1019.0657654273
2	66311	61.54	1019.2057856456
2	66312	61.55	1019.3458988793
2	66313	61.56	1019.4861082064
2	66314	61.57	1019.6264166448
2	66315	61.58	1019.766827153
2	66316	61.59	1019.9073426316
2	66317	61.6	1020.0479659244
2	66319	61.61	1020.1886998192
2	66320	61.62	1020.3295470495
2	66331	61.63	1020.4705102949
2	66332	61.64	1020.6115921824
2	66333	61.65	1020.7527952879
2	66334	61.66	1020.8941221364
2	66335	61.67	1021.0355752036
2	66336	61.68	1021.1771569165
2	66337	61.69	1021.3188696547
2	66338	61.7	1021.4607157509
2	66340	61.71	1021.6026974923
2	66341	61.72	1021.7448171211
2	66352	61.73	1021.8870768356
2	66353	61.74	1022.029478791
2	66354	61.75	1022.1720251002
2	66355	61.76	1022.3147178347
2	66356	61.77	1022.4575590254
2	66357	61.78	1022.6005506634
2	66358	61.79	1022.7436947006
2	66359	61.8	1022.8869930508
2	66361	61.81	1023.0304475902
2	66362	61.82	1023.1740601582
2	66373	61.83	1023.3178325583
2	66374	61.84	1023.4617665583
2	66375	61.85	1023.6058638917
2	66376	61.86	1023.7501262577
2	66377	61.87	1023.8945553225
2	66378	61.88	1024.0391527193
2	66379	61.89	1024.1839200495
2	66380	61.9	1024.328858883
2	66382	61.91	1024.473970759
2	66383	61.92	1024.6192571865
2	66394	61.93	1024.7647196448

