version 3
run OvertakeNoGui-289-20241104-10:05:56-92566
attr configname OvertakeNoGui
attr datetime 20241104-10:05:56
attr datetimef 20241104-100556
attr experiment OvertakeNoGui
attr inifile omnetpp.ini
attr iterationvars "$leaderHeadway=1.2, $leaderSpeed=50, $controller=0, $pCSpeed=58, $pDeltaC=502"
attr iterationvarsd leaderHeadway=1.2/leaderSpeed=50/controller=0/pCSpeed=58/pDeltaC=502
attr iterationvarsf leaderHeadway=1.2,leaderSpeed=50,controller=0,pCSpeed=58,pDeltaC=502-
attr measurement "$leaderHeadway=1.2, $leaderSpeed=50, $controller=0, $pCSpeed=58, $pDeltaC=502"
attr network Overtake
attr processid 92566
attr repetition 0
attr replication #0
attr resultdir results
attr runnumber 289
attr seedset 0
itervar controller 0
itervar leaderHeadway 1.2
itervar leaderSpeed 50
itervar pCSpeed 58
itervar pDeltaC 502
config image-path ../../../../veins/images;../../images
config *.manager.command "\"sumo\""
config *.manager.ignoreGuiCommands true
config *.node[*].scenario_type "\"OvertakeScenario\""
config output-vector-file results/OvertakeNoGui_58_502_0.vec
config output-scalar-file results/OvertakeNoGui_58_502_0.sca
config cmdenv-express-mode false
config cmdenv-autoflush true
config cmdenv-status-frequency 10s
config num-rngs 6
config cmdenv-output-file log.txt
config cmdenv-redirect-output true
config network Overtake
config debug-on-errors true
config print-undisposed true
config *.playgroundSizeX 65000m
config *.playgroundSizeY 25000m
config *.playgroundSizeZ 50m
config sim-time-limit "360 s"
config *.annotations.draw false
config *.obstacles.debug false
config *.world.useTorus false
config *.world.use2D false
config *.manager.updateInterval 0.01s
config *.manager.host "\"localhost\""
config *.manager.moduleType "\"vtypeauto=org.car2x.plexe.PlatoonCar vtypehuman=0\""
config *.manager.moduleName "\"vtypeauto=node vtypehuman=0\""
config *.manager.moduleDisplayString "\"\""
config *.manager.autoShutdown true
config *.manager.margin 25
config *.manager.order -1
config *.connectionManager.sendDirect true
config *.connectionManager.maxInterfDist 2600m
config *.connectionManager.drawMaxIntfDist false
config *.**.nic.mac1609_4.useServiceChannel false
config *.**.nic.mac1609_4.txPower 100mW
config *.**.nic.mac1609_4.bitrate 6Mbps
config *.**.nic.mac1609_4.useAcks true
config *.**.nic.mac1609_4.ackErrorRate 0.0
config *.**.nic.mac1609_4.frameErrorRate 0.0
config *.**.nic.phy80211p.minPowerLevel -94dBm
config *.**.nic.phy80211p.maxTXPower 100mW
config *.**.nic.phy80211p.useNoiseFloor true
config *.**.nic.phy80211p.noiseFloor -95dBm
config *.**.nic.phy80211p.decider "xmldoc(\"config.xml\")"
config *.**.nic.phy80211p.analogueModels "xmldoc(\"config.xml\")"
config *.**.nic.phy80211p.usePropagationDelay true
config *.node[*].mobility.x 0
config *.node[*].mobility.y 0
config *.node[*].mobility.z 1.895
config *.shockwave[*].mobility.x 0
config *.shockwave[*].mobility.y 0
config *.shockwave[*].mobility.z 1.895
config seed-set 0
config **.seed 0
config *.node[*].prot.rng-0 2
config *.node[*].appl.rng-0 3
config *.node[*].scenario.rng-0 4
config *.manager.configFile "\"./sumocfg/overtake.sumo.cfg\""
config *.manager.launchConfig "xmldoc(\"./sumocfg/overtake.launchd.xml\")"
config *.node[*].helper_type "\"PositionHelper\""
config *.node[*].scenario.caccC1 0.5
config *.node[*].scenario.caccXi 1
config *.node[*].scenario.caccOmegaN "0.2 Hz"
config *.node[*].scenario.caccSpacing "5 m"
config *.node[*].scenario.engineTau "0.5 s"
config *.node[*].scenario.ploegH "0.5 s"
config *.node[*].scenario.ploegKp 0.2
config *.node[*].scenario.ploegKd 0.7
config *.node[*].scenario.useRealisticEngine false
config *.node[*].scenario.targetController "\"CACC\""
config *.node[*].scenario.accHeadway "0.1 s"
config *.node[*].scenario.leaderHeadway "1.2 s"
config *.node[*].scenario.leaderSpeed "50 kmph"
config *.node[*].appl_type "\"OvertakeApp\""
config *.node[*].appl.*.scalar-recording true
config *.node[*].appl.*.vector-recording true
config *.node[*].appl.overtakeManeuver "\"OvertakeManeuver\""
config *.node[*].protocol_type "\"SimplePlatooningBeaconing\""
config *.node[*].prot.*.scalar-recording true
config *.node[*].prot.*.vector-recording true
config *.node[*].prot.beaconingInterval "0.1 s"
config *.node[*].prot.priority 4
config *.node[*].prot.packetSize 200
config *.node[*].prot.useControllerAcceleration true
config **.traffic_type "\"OvertakeTrafficManager\""
config **.traffic.platoonInsertTime "0.1 s"
config **.traffic.platooningVType "\"vtypeauto\""
config **.numericController 0
config **.traffic.platoonInsertDistance 5m
config **.traffic.platoonInsertHeadway 0s
config **.traffic.platoonLeaderHeadway 1.2s
config **.traffic.platoonASpeed 50kmph
config **.traffic.platoonBSpeed 100kmph
config **.traffic.platoonCSpeed 58kmph
config **.traffic.platoonSizeA 2
config **.traffic.platoonSizeB 1
config **.traffic.platoonSizeC 1
config **.traffic.initialPositionDeltaA 150
config **.traffic.initialPositionDeltaB 50
config **.traffic.initialPositionDeltaC 502
config **.traffic.controller "\"CACC\""
config **.scalar-recording true
config **.vector-recording true

vector 0 Overtake.node[0].mobility posx ETV
vector 1 Overtake.node[0].mobility posy ETV
vector 2 Overtake.node[1].mobility posx ETV
vector 3 Overtake.node[1].mobility posy ETV
vector 4 Overtake.node[2].mobility posx ETV
vector 5 Overtake.node[2].mobility posy ETV
vector 6 Overtake.node[3].mobility posx ETV
vector 7 Overtake.node[3].mobility posy ETV
vector 8 Overtake.node[0].mobility speed ETV
vector 9 Overtake.node[1].mobility speed ETV
vector 10 Overtake.node[2].mobility speed ETV
vector 11 Overtake.node[3].mobility speed ETV
vector 12 Overtake.node[0].mobility acceleration ETV
vector 13 Overtake.node[0].mobility co2emission ETV
vector 14 Overtake.node[1].mobility acceleration ETV
vector 15 Overtake.node[1].mobility co2emission ETV
vector 16 Overtake.node[2].mobility acceleration ETV
vector 17 Overtake.node[2].mobility co2emission ETV
vector 18 Overtake.node[3].mobility acceleration ETV
vector 19 Overtake.node[3].mobility co2emission ETV
vector 20 Overtake.node[0].appl distance ETV
vector 21 Overtake.node[0].appl relativeSpeed ETV
vector 22 Overtake.node[0].appl nodeId ETV
vector 23 Overtake.node[0].appl acceleration ETV
vector 24 Overtake.node[0].appl controllerAcceleration ETV
vector 25 Overtake.node[0].appl speed ETV
vector 26 Overtake.node[0].appl posx ETV
vector 27 Overtake.node[0].appl posy ETV
vector 28 Overtake.node[1].appl distance ETV
vector 29 Overtake.node[1].appl relativeSpeed ETV
vector 30 Overtake.node[1].appl nodeId ETV
vector 31 Overtake.node[1].appl acceleration ETV
vector 32 Overtake.node[1].appl controllerAcceleration ETV
vector 33 Overtake.node[1].appl speed ETV
vector 34 Overtake.node[1].appl posx ETV
vector 35 Overtake.node[1].appl posy ETV
vector 36 Overtake.node[2].appl distance ETV
vector 37 Overtake.node[2].appl relativeSpeed ETV
vector 38 Overtake.node[2].appl nodeId ETV
vector 39 Overtake.node[2].appl acceleration ETV
vector 40 Overtake.node[2].appl controllerAcceleration ETV
vector 41 Overtake.node[2].appl speed ETV
vector 42 Overtake.node[2].appl posx ETV
vector 43 Overtake.node[2].appl posy ETV
vector 44 Overtake.node[3].appl distance ETV
vector 45 Overtake.node[3].appl relativeSpeed ETV
vector 46 Overtake.node[3].appl nodeId ETV
vector 47 Overtake.node[3].appl acceleration ETV
vector 48 Overtake.node[3].appl controllerAcceleration ETV
vector 49 Overtake.node[3].appl speed ETV
vector 50 Overtake.node[3].appl posx ETV
vector 51 Overtake.node[3].appl posy ETV
vector 52 Overtake.node[1].prot leaderDelay ETV
vector 53 Overtake.node[1].prot leaderDelayId ETV
vector 54 Overtake.node[1].prot frontDelay ETV
vector 55 Overtake.node[1].prot frontDelayId ETV
vector 56 Overtake.node[0].prot nodeId ETV
vector 57 Overtake.node[0].prot busyTime ETV
vector 58 Overtake.node[0].prot collisions ETV
vector 59 Overtake.node[1].prot nodeId ETV
vector 60 Overtake.node[1].prot busyTime ETV
vector 61 Overtake.node[1].prot collisions ETV
vector 62 Overtake.node[2].prot nodeId ETV
vector 63 Overtake.node[2].prot busyTime ETV
vector 64 Overtake.node[2].prot collisions ETV
vector 65 Overtake.node[3].prot nodeId ETV
vector 66 Overtake.node[3].prot busyTime ETV
vector 67 Overtake.node[3].prot collisions ETV
48	26	0.21	0.00109259
48	176	0.31	0.00106709
48	326	0.41	0.00102704
48	476	0.51	0.000975759
48	626	0.61	0.00091619
48	776	0.71	0.000850891
48	926	0.81	0.000782061
48	1076	0.91	0.00071157
48	1230	1.01	0.00064098
48	1381	1.11	0.000571575
48	1532	1.21	0.000504387
48	1683	1.31	0.000440223
48	2046	1.41	0.000379691
48	2196	1.51	0.000323223
48	2346	1.61	0.000271102
48	2496	1.71	0.000223482
48	2646	1.81	0.000180409
48	2796	1.91	0.000141839
48	2950	2.01	0.000107653
48	3100	2.11	7.76787e-05
48	3250	2.21	5.16957e-05
48	3400	2.31	2.94534e-05
48	3763	2.41	1.06787e-05
48	3914	2.51	-4.91459e-06
48	4064	2.61	-1.76184e-05
48	4214	2.71	-2.7724e-05
48	4364	2.81	-3.55168e-05
48	4514	2.91	-4.12726e-05
48	4668	3.01	-4.52541e-05
48	4818	3.11	-4.77086e-05
48	4968	3.21	-4.88665e-05
48	5118	3.31	-4.89399e-05
48	5269	3.41	-4.81224e-05
48	5676	3.51	-4.65886e-05
48	5826	3.61	-4.44947e-05
48	5976	3.71	-4.1979e-05
48	6126	3.81	-3.91623e-05
48	6276	3.91	-3.61492e-05
48	6430	4.01	-3.3029e-05
48	6580	4.11	-2.9877e-05
48	6730	4.21	-2.67554e-05
48	6880	4.31	-2.37147e-05
48	7030	4.41	-2.07949e-05
48	7393	4.51	-1.80267e-05
48	7544	4.61	-1.54325e-05
48	7694	4.71	-1.30275e-05
48	7844	4.81	-1.0821e-05
48	7994	4.91	-8.81673e-06
48	8148	5.01	-7.01443e-06
48	8298	5.11	-5.4101e-06
48	8448	5.21	-3.99696e-06
48	8598	5.31	-2.766e-06
48	8748	5.41	-1.70658e-06
48	8899	5.51	-8.06871e-07
48	9262	5.61	-5.4327e-08
48	9412	5.71	5.63995e-07
48	9562	5.81	1.06112e-06
48	9712	5.91	1.4499e-06
48	9866	6.01	1.74283e-06
48	10016	6.11	1.95188e-06
48	10166	6.21	2.08836e-06
48	10316	6.31	2.16287e-06
48	10466	6.41	2.1852e-06
48	10616	6.51	2.16432e-06
48	11023	6.61	2.10838e-06
48	11174	6.71	2.02467e-06
48	11324	6.81	1.91968e-06
48	11474	6.91	1.79913e-06
48	11628	7.01	1.66796e-06
48	11778	7.11	1.53044e-06
48	11928	7.21	1.39018e-06
48	12078	7.31	1.25018e-06
48	12228	7.41	1.11291e-06
48	12378	7.51	9.8034e-07
48	12529	7.61	8.54002e-07
48	12892	7.71	7.35044e-07
48	13042	7.81	6.24274e-07
48	13192	7.91	5.22206e-07
48	13346	8.01	4.2911e-07
48	13496	8.11	3.45041e-07
48	13646	8.21	2.69887e-07
48	13796	8.31	2.03394e-07
48	13946	8.41	1.45198e-07
48	14096	8.51	9.48535e-08
48	14246	8.61	5.18519e-08
48	14609	8.71	1.56454e-08
48	14760	8.81	-1.4337e-08
48	14910	8.91	-3.86756e-08
48	15064	9.01	-5.79483e-08
48	15214	9.11	-7.27191e-08
48	15364	9.21	-8.35321e-08
48	15514	9.31	-9.09044e-08
48	15664	9.41	-9.53218e-08
48	15814	9.51	-9.72356e-08
48	15964	9.61	-9.70619e-08
48	16115	9.71	-9.51786e-08
48	16522	9.81	-9.19261e-08
48	16672	9.91	-8.76096e-08
48	16826	10.01	-8.24969e-08
48	16976	10.11	-7.68232e-08
48	17126	10.21	-7.0791e-08
48	17276	10.31	-6.45727e-08
48	17426	10.41	-5.83132e-08
48	17576	10.51	-5.21325e-08
48	17726	10.61	-4.61274e-08
48	17876	10.71	-4.03734e-08
48	18239	10.81	-3.49292e-08
48	18390	10.91	-2.98364e-08
48	18544	11.01	-2.51237e-08
48	18694	11.11	-2.08068e-08
48	18844	11.21	-1.68924e-08
48	18994	11.31	-1.33781e-08
48	19144	11.41	-1.02553e-08
48	19294	11.51	-7.50973e-09
48	19444	11.61	-5.1223e-09
48	19594	11.71	-3.07203e-09
48	19745	11.81	-1.33511e-09
48	20108	11.91	1.13687e-10
48	20262	12.01	1.30029e-09
48	20412	12.11	2.25029e-09
48	20562	12.21	2.98925e-09
48	20712	12.31	3.5417e-09
48	20862	12.41	3.93179e-09
48	21012	12.51	4.18083e-09
48	21162	12.61	4.31051e-09
48	21312	12.71	4.33964e-09
48	21462	12.81	4.28528e-09
48	21845	12.91	4.16414e-09
48	22000	13.01	3.99005e-09
48	22150	13.11	3.77582e-09
48	22300	13.21	3.53211e-09
48	22450	13.31	3.26921e-09
48	22600	13.41	2.99458e-09
48	22750	13.51	2.71569e-09
48	22900	13.61	2.43823e-09
48	23050	13.71	2.1668e-09
48	23200	13.81	1.90532e-09
48	23351	13.91	1.65663e-09
48	23738	14.01	1.42286e-09
48	23888	14.11	1.20544e-09
48	24038	14.21	1.00577e-09
48	24188	14.31	8.23519e-10
48	24338	14.41	6.59739e-10
48	24488	14.51	5.13012e-10
48	24638	14.61	3.83693e-10
48	24788	14.71	2.70717e-10
48	24938	14.81	1.73372e-10
48	25088	14.91	9.02389e-11
48	25242	15.01	2.02505e-11
48	25392	15.11	-3.73035e-11
48	25542	15.21	-8.3844e-11
48	25692	15.31	-1.20437e-10
48	25842	15.41	-1.48503e-10
48	25992	15.51	-1.68754e-10
48	26142	15.61	-1.82609e-10
48	26292	15.71	-1.90425e-10
48	26442	15.81	-1.93268e-10
48	26592	15.91	-1.92557e-10
48	26746	16.01	-1.88294e-10
48	26896	16.11	-1.81188e-10
48	27046	16.21	-1.72307e-10
48	27196	16.31	-1.62004e-10
48	27346	16.41	-1.50635e-10
48	27496	16.51	-1.38556e-10
48	27646	16.61	-1.26121e-10
48	27796	16.71	-1.13687e-10
48	27946	16.81	-1.01608e-10
48	28096	16.91	-8.98837e-11
48	28250	17.01	-7.8515e-11
48	28400	17.11	-6.78568e-11
48	28550	17.21	-5.79092e-11
48	28700	17.31	-4.86722e-11
48	28850	17.41	-4.01457e-11
48	29000	17.51	-3.23297e-11
48	29150	17.61	-2.52243e-11
48	29300	17.71	-1.88294e-11
48	29450	17.81	-1.3145e-11
48	29600	17.91	-8.52651e-12
48	29754	18.01	-4.26326e-12
48	29904	18.11	-7.10543e-13
48	30054	18.21	2.13163e-12
48	30204	18.31	4.61853e-12
48	30354	18.41	6.39488e-12
48	30504	18.51	7.81597e-12
48	30654	18.61	9.23706e-12
48	30804	18.71	9.9476e-12
48	30954	18.81	1.06581e-11
48	31104	18.91	1.06581e-11
48	31258	19.01	1.06581e-11
48	31408	19.11	1.03029e-11
48	31558	19.21	1.03029e-11
48	31708	19.31	9.9476e-12
48	31858	19.41	9.9476e-12
48	32008	19.51	9.59233e-12
48	32158	19.61	9.59233e-12
48	32308	19.71	9.23706e-12
48	32458	19.81	9.23706e-12
48	32608	19.91	8.88178e-12
48	32762	20.01	8.88178e-12
48	32912	20.11	8.52651e-12
48	33062	20.21	8.52651e-12
48	33212	20.31	8.17124e-12
48	33362	20.41	8.17124e-12
48	33512	20.51	7.81597e-12
48	33662	20.61	7.81597e-12
48	33812	20.71	7.4607e-12
48	33962	20.81	7.4607e-12
48	34112	20.91	7.10543e-12
48	34266	21.01	7.10543e-12
48	34416	21.11	6.75016e-12
48	34566	21.21	6.75016e-12
48	34716	21.31	6.39488e-12
48	34866	21.41	6.39488e-12
48	35016	21.51	6.03961e-12
48	35166	21.61	6.03961e-12
48	35316	21.71	5.68434e-12
48	35466	21.81	5.68434e-12
48	35616	21.91	5.32907e-12
48	35770	22.01	5.32907e-12
48	35920	22.11	4.9738e-12
48	36070	22.21	4.9738e-12
48	36220	22.31	4.61853e-12
48	36370	22.41	4.61853e-12
48	36520	22.51	4.26326e-12
48	36670	22.61	4.26326e-12
48	36820	22.71	3.90799e-12
48	36970	22.81	3.90799e-12
48	37120	22.91	3.55271e-12
48	37274	23.01	3.55271e-12
48	37424	23.11	3.19744e-12
48	37574	23.21	3.19744e-12
48	37724	23.31	2.84217e-12
48	37874	23.41	2.84217e-12
48	38024	23.51	2.4869e-12
48	38174	23.61	2.4869e-12
48	38324	23.71	2.13163e-12
48	38474	23.81	2.13163e-12
48	38624	23.91	1.77636e-12
48	38778	24.01	1.77636e-12
48	38928	24.11	1.42109e-12
48	39078	24.21	1.42109e-12
48	39228	24.31	1.06581e-12
48	39378	24.41	1.06581e-12
48	39528	24.51	7.10543e-13
48	39678	24.61	7.10543e-13
48	39828	24.71	3.55271e-13
48	39978	24.81	3.55271e-13
48	40128	24.91	0
48	40282	25.01	0
48	40432	25.11	-3.55271e-13
48	40582	25.21	-3.55271e-13
48	40732	25.31	-7.10543e-13
48	40882	25.41	-7.10543e-13
48	41032	25.51	-1.06581e-12
48	41182	25.61	-1.06581e-12
48	41333	25.71	-1.42109e-12
48	41483	25.81	-1.42109e-12
48	41633	25.91	-1.77636e-12
48	41787	26.01	-1.77636e-12
48	41937	26.11	-2.13163e-12
48	42087	26.21	-2.13163e-12
48	42237	26.31	-2.4869e-12
48	42387	26.41	-2.4869e-12
48	42537	26.51	-2.84217e-12
48	42687	26.61	-2.84217e-12
48	42837	26.71	-3.19744e-12
48	42987	26.81	-3.19744e-12
48	43137	26.91	-3.55271e-12
48	43291	27.01	-3.55271e-12
48	43441	27.11	-3.90799e-12
48	43591	27.21	-3.90799e-12
48	43741	27.31	-4.26326e-12
48	43891	27.41	-4.26326e-12
48	44041	27.51	-4.61853e-12
48	44191	27.61	-4.61853e-12
48	44341	27.71	-4.9738e-12
48	44491	27.81	-4.9738e-12
48	44641	27.91	-5.32907e-12
48	44795	28.01	-5.32907e-12
48	44945	28.11	-5.68434e-12
48	45095	28.21	-5.68434e-12
48	45245	28.31	-6.03961e-12
48	45395	28.41	-6.03961e-12
48	45545	28.51	-6.39488e-12
48	45695	28.61	-6.39488e-12
48	45845	28.71	-6.75016e-12
48	45995	28.81	-6.75016e-12
48	46145	28.91	-7.10543e-12
48	46299	29.01	-7.10543e-12
48	46449	29.11	-7.4607e-12
48	46599	29.21	-7.4607e-12
48	46749	29.31	-7.4607e-12
48	46899	29.41	-7.81597e-12
48	47049	29.51	-7.81597e-12
48	47199	29.61	-7.81597e-12
48	47349	29.71	-8.17124e-12
48	47499	29.81	-8.17124e-12
48	47649	29.91	-8.17124e-12
48	47803	30.01	-8.17124e-12
48	47953	30.11	-8.17124e-12
48	48103	30.21	-8.52651e-12
48	48253	30.31	-8.52651e-12
48	48403	30.41	-8.52651e-12
48	48553	30.51	-8.52651e-12
48	48703	30.61	-8.52651e-12
48	48853	30.71	-8.52651e-12
48	49003	30.81	-8.52651e-12
48	49153	30.91	-8.52651e-12
48	49307	31.01	-8.52651e-12
47	26	0.21	0.000179096
47	176	0.31	0.000340852
47	326	0.41	0.000467435
47	476	0.51	0.000562893
47	626	0.61	0.000631106
47	776	0.71	0.000675745
47	926	0.81	0.000700245
47	1076	0.91	0.000707784
47	1230	1.01	0.000701273
47	1381	1.11	0.000683354
47	1532	1.21	0.000656398
47	1683	1.31	0.000622512
47	2046	1.41	0.000583548
47	2196	1.51	0.000541117
47	2346	1.61	0.000496604
47	2496	1.71	0.000451181
47	2646	1.81	0.000405825
47	2796	1.91	0.00036134
47	2950	2.01	0.000318365
47	3100	2.11	0.0002774
47	3250	2.21	0.00023882
47	3400	2.31	0.000202887
47	3763	2.41	0.00016977
47	3914	2.51	0.000139558
47	4064	2.61	0.000112271
47	4214	2.71	8.78717e-05
47	4364	2.81	6.628e-05
47	4514	2.91	4.73785e-05
47	4668	3.01	3.1023e-05
47	4818	3.11	1.70493e-05
47	4968	3.21	5.28023e-06
47	5118	3.31	-4.46922e-06
47	5269	3.41	-1.2387e-05
47	5676	3.51	-1.86602e-05
47	5826	3.61	-2.34717e-05
47	5976	3.71	-2.69978e-05
47	6126	3.81	-2.94062e-05
47	6276	3.91	-3.08545e-05
47	6430	4.01	-3.14892e-05
47	6580	4.11	-3.14451e-05
47	6730	4.21	-3.0845e-05
47	6880	4.31	-2.97994e-05
47	7030	4.41	-2.84072e-05
47	7393	4.51	-2.67556e-05
47	7544	4.61	-2.49208e-05
47	7694	4.71	-2.29687e-05
47	7844	4.81	-2.09553e-05
47	7994	4.91	-1.89277e-05
47	8148	5.01	-1.6925e-05
47	8298	5.11	-1.49784e-05
47	8448	5.21	-1.31129e-05
47	8598	5.31	-1.13474e-05
47	8748	5.41	-9.69553e-06
47	8899	5.51	-8.16651e-06
47	9262	5.61	-6.76571e-06
47	9412	5.71	-5.49522e-06
47	9562	5.81	-4.35441e-06
47	9712	5.91	-3.34045e-06
47	9866	6.01	-2.44874e-06
47	10016	6.11	-1.6733e-06
47	10166	6.21	-1.00716e-06
47	10316	6.31	-4.42628e-07
47	10466	6.41	2.84235e-08
47	10616	6.51	4.14339e-07
47	11023	6.61	7.23493e-07
47	11174	6.71	9.6413e-07
47	11324	6.81	1.14424e-06
47	11474	6.91	1.27148e-06
47	11628	7.01	1.35305e-06
47	11778	7.11	1.3957e-06
47	11928	7.21	1.40565e-06
47	12078	7.31	1.3886e-06
47	12228	7.41	1.34971e-06
47	12378	7.51	1.2936e-06
47	12529	7.61	1.22437e-06
47	12892	7.71	1.14561e-06
47	13042	7.81	1.06046e-06
47	13192	7.91	9.71584e-07
47	13346	8.01	8.81248e-07
47	13496	8.11	7.91336e-07
47	13646	8.21	7.03383e-07
47	13796	8.31	6.18615e-07
47	13946	8.41	5.3798e-07
47	14096	8.51	4.62182e-07
47	14246	8.61	3.91713e-07
47	14609	8.71	3.26876e-07
47	14760	8.81	2.67826e-07
47	14910	8.91	2.1458e-07
47	15064	9.01	1.67051e-07
47	15214	9.11	1.25065e-07
47	15364	9.21	8.8378e-08
47	15514	9.31	5.66974e-08
47	15664	9.41	2.96907e-08
47	15814	9.51	7.00418e-09
47	15964	9.61	-1.17332e-08
47	16115	9.71	-2.68933e-08
47	16522	9.81	-3.88475e-08
47	16672	9.91	-4.79577e-08
47	16826	10.01	-5.45707e-08
47	16976	10.11	-5.90166e-08
47	17126	10.21	-6.16058e-08
47	17276	10.31	-6.26251e-08
47	17426	10.41	-6.23377e-08
47	17576	10.51	-6.09834e-08
47	17726	10.61	-5.87796e-08
47	17876	10.71	-5.59169e-08
47	18239	10.81	-5.25652e-08
47	18390	10.91	-4.88733e-08
47	18544	11.01	-4.49678e-08
47	18694	11.11	-4.09575e-08
47	18844	11.21	-3.69333e-08
47	18994	11.31	-3.29699e-08
47	19144	11.41	-2.91273e-08
47	19294	11.51	-2.5452e-08
47	19444	11.61	-2.1981e-08
47	19594	11.71	-1.87388e-08
47	19745	11.81	-1.57431e-08
47	20108	11.91	-1.30033e-08
47	20262	12.01	-1.05221e-08
47	20412	12.11	-8.29843e-09
47	20562	12.21	-6.3249e-09
47	20712	12.31	-4.59295e-09
47	20862	12.41	-3.0898e-09
47	21012	12.51	-1.80158e-09
47	21162	12.61	-7.11964e-10
47	21312	12.71	1.94333e-10
47	21462	12.81	9.34719e-10
47	21845	12.91	1.52482e-09
47	22000	13.01	1.9817e-09
47	22150	13.11	2.32134e-09
47	22300	13.21	2.55831e-09
47	22450	13.31	2.70646e-09
47	22600	13.41	2.77964e-09
47	22750	13.51	2.78995e-09
47	22900	13.61	2.74873e-09
47	23050	13.71	2.66525e-09
47	23200	13.81	2.54872e-09
47	23351	13.91	2.40767e-09
47	23738	14.01	2.24887e-09
47	23888	14.11	2.07834e-09
47	24038	14.21	1.90141e-09
47	24188	14.31	1.72058e-09
47	24338	14.41	1.54294e-09
47	24488	14.51	1.36922e-09
47	24638	14.61	1.20188e-09
47	24788	14.71	1.04308e-09
47	24938	14.81	8.94218e-10
47	25088	14.91	7.56373e-10
47	25242	15.01	6.29186e-10
47	25392	15.11	5.13722e-10
47	25542	15.21	4.09983e-10
47	25692	15.31	3.17257e-10
47	25842	15.41	2.35545e-10
47	25992	15.51	1.64491e-10
47	26142	15.61	1.03384e-10
47	26292	15.71	5.08038e-11
47	26442	15.81	7.10543e-12
47	26592	15.91	-2.8777e-11
47	26746	16.01	-5.79092e-11
47	26896	16.11	-8.06466e-11
47	27046	16.21	-9.76996e-11
47	27196	16.31	-1.10134e-10
47	27346	16.41	-1.18305e-10
47	27496	16.51	-1.22924e-10
47	27646	16.61	-1.24345e-10
47	27796	16.71	-1.23634e-10
47	27946	16.81	-1.20082e-10
47	28096	16.91	-1.16529e-10
47	28250	17.01	-1.09424e-10
47	28400	17.11	-1.02318e-10
47	28550	17.21	-9.52127e-11
47	28700	17.31	-8.81073e-11
47	28850	17.41	-8.10019e-11
47	29000	17.51	-7.38964e-11
47	29150	17.61	-6.6791e-11
47	29300	17.71	-5.96856e-11
47	29450	17.81	-5.25802e-11
47	29600	17.91	-4.54747e-11
47	29754	18.01	-3.83693e-11
47	29904	18.11	-3.12639e-11
47	30054	18.21	-2.45137e-11
47	30204	18.31	-2.0961e-11
47	30354	18.41	-1.74083e-11
47	30504	18.51	-1.38556e-11
47	30654	18.61	-1.03029e-11
47	30804	18.71	-6.75016e-12
47	30954	18.81	-3.19744e-12
47	31104	18.91	3.55271e-13
47	31258	19.01	1.77636e-12
47	31408	19.11	1.77636e-12
47	31558	19.21	1.77636e-12
47	31708	19.31	1.77636e-12
47	31858	19.41	1.77636e-12
47	32008	19.51	1.77636e-12
47	32158	19.61	1.77636e-12
47	32308	19.71	1.77636e-12
47	32458	19.81	1.77636e-12
47	32608	19.91	1.77636e-12
47	32762	20.01	1.77636e-12
47	32912	20.11	1.77636e-12
47	33062	20.21	1.77636e-12
47	33212	20.31	1.77636e-12
47	33362	20.41	1.77636e-12
47	33512	20.51	1.77636e-12
47	33662	20.61	1.77636e-12
47	33812	20.71	1.77636e-12
47	33962	20.81	1.77636e-12
47	34112	20.91	1.77636e-12
47	34266	21.01	1.77636e-12
47	34416	21.11	1.77636e-12
47	34566	21.21	1.77636e-12
47	34716	21.31	1.77636e-12
47	34866	21.41	1.77636e-12
47	35016	21.51	1.77636e-12
47	35166	21.61	1.77636e-12
47	35316	21.71	1.77636e-12
47	35466	21.81	1.77636e-12
47	35616	21.91	1.77636e-12
47	35770	22.01	1.77636e-12
47	35920	22.11	1.77636e-12
47	36070	22.21	1.77636e-12
47	36220	22.31	1.77636e-12
47	36370	22.41	1.77636e-12
47	36520	22.51	1.77636e-12
47	36670	22.61	1.77636e-12
47	36820	22.71	1.77636e-12
47	36970	22.81	1.77636e-12
47	37120	22.91	1.77636e-12
47	37274	23.01	1.77636e-12
47	37424	23.11	1.77636e-12
47	37574	23.21	1.77636e-12
47	37724	23.31	1.77636e-12
47	37874	23.41	1.77636e-12
47	38024	23.51	1.77636e-12
47	38174	23.61	1.77636e-12
47	38324	23.71	1.77636e-12
47	38474	23.81	1.77636e-12
47	38624	23.91	1.77636e-12
47	38778	24.01	1.77636e-12
47	38928	24.11	1.77636e-12
47	39078	24.21	1.77636e-12
47	39228	24.31	1.77636e-12
47	39378	24.41	1.77636e-12
47	39528	24.51	1.77636e-12
47	39678	24.61	1.77636e-12
47	39828	24.71	1.77636e-12
47	39978	24.81	1.77636e-12
47	40128	24.91	1.77636e-12
47	40282	25.01	1.77636e-12
47	40432	25.11	1.77636e-12
47	40582	25.21	1.77636e-12
47	40732	25.31	1.77636e-12
47	40882	25.41	1.77636e-12
47	41032	25.51	1.77636e-12
47	41182	25.61	1.77636e-12
47	41333	25.71	1.77636e-12
47	41483	25.81	1.77636e-12
47	41633	25.91	1.77636e-12
47	41787	26.01	1.77636e-12
47	41937	26.11	1.77636e-12
47	42087	26.21	1.77636e-12
47	42237	26.31	1.77636e-12
47	42387	26.41	1.77636e-12
47	42537	26.51	1.77636e-12
47	42687	26.61	1.77636e-12
47	42837	26.71	1.77636e-12
47	42987	26.81	1.77636e-12
47	43137	26.91	1.77636e-12
47	43291	27.01	1.77636e-12
47	43441	27.11	1.77636e-12
47	43591	27.21	1.77636e-12
47	43741	27.31	1.77636e-12
47	43891	27.41	1.77636e-12
47	44041	27.51	1.77636e-12
47	44191	27.61	1.77636e-12
47	44341	27.71	1.77636e-12
47	44491	27.81	1.77636e-12
47	44641	27.91	1.77636e-12
47	44795	28.01	1.77636e-12
47	44945	28.11	1.77636e-12
47	45095	28.21	1.77636e-12
47	45245	28.31	1.77636e-12
47	45395	28.41	1.77636e-12
47	45545	28.51	1.77636e-12
47	45695	28.61	1.77636e-12
47	45845	28.71	1.77636e-12
47	45995	28.81	1.77636e-12
47	46145	28.91	1.77636e-12
47	46299	29.01	1.77636e-12
47	46449	29.11	1.42109e-12
47	46599	29.21	1.42109e-12
47	46749	29.31	1.42109e-12
47	46899	29.41	1.06581e-12
47	47049	29.51	1.06581e-12
47	47199	29.61	1.06581e-12
47	47349	29.71	7.10543e-13
47	47499	29.81	7.10543e-13
47	47649	29.91	7.10543e-13
47	47803	30.01	7.10543e-13
47	47953	30.11	7.10543e-13
47	48103	30.21	3.55271e-13
47	48253	30.31	3.55271e-13
47	48403	30.41	3.55271e-13
47	48553	30.51	3.55271e-13
47	48703	30.61	3.55271e-13
47	48853	30.71	3.55271e-13
47	49003	30.81	3.55271e-13
47	49153	30.91	3.55271e-13
47	49307	31.01	3.55271e-13
51	26	0.21	1.6
51	176	0.31	1.6
51	326	0.41	1.6
51	476	0.51	1.6
51	626	0.61	1.6
51	776	0.71	1.6
51	926	0.81	1.6
51	1076	0.91	1.6
51	1230	1.01	1.6
51	1381	1.11	1.6
51	1532	1.21	1.6
51	1683	1.31	1.6
51	2046	1.41	1.6
51	2196	1.51	1.6
51	2346	1.61	1.6
51	2496	1.71	1.6
51	2646	1.81	1.6
51	2796	1.91	1.6
51	2950	2.01	1.6
51	3100	2.11	1.6
51	3250	2.21	1.6
51	3400	2.31	1.6
51	3763	2.41	1.6
51	3914	2.51	1.6
51	4064	2.61	1.6
51	4214	2.71	1.6
51	4364	2.81	1.6
51	4514	2.91	1.6
51	4668	3.01	1.6
51	4818	3.11	1.6
51	4968	3.21	1.6
51	5118	3.31	1.6
51	5269	3.41	1.6
51	5676	3.51	1.6
51	5826	3.61	1.6
51	5976	3.71	1.6
51	6126	3.81	1.6
51	6276	3.91	1.6
51	6430	4.01	1.6
51	6580	4.11	1.6
51	6730	4.21	1.6
51	6880	4.31	1.6
51	7030	4.41	1.6
51	7393	4.51	1.6
51	7544	4.61	1.6
51	7694	4.71	1.6
51	7844	4.81	1.6
51	7994	4.91	1.6
51	8148	5.01	1.6
51	8298	5.11	1.6
51	8448	5.21	1.6
51	8598	5.31	1.6
51	8748	5.41	1.6
51	8899	5.51	1.6
51	9262	5.61	1.6
51	9412	5.71	1.6
51	9562	5.81	1.6
51	9712	5.91	1.6
51	9866	6.01	1.6
51	10016	6.11	1.6
51	10166	6.21	1.6
51	10316	6.31	1.6
51	10466	6.41	1.6
51	10616	6.51	1.6
51	11023	6.61	1.6
51	11174	6.71	1.6
51	11324	6.81	1.6
51	11474	6.91	1.6
51	11628	7.01	1.6
51	11778	7.11	1.6
51	11928	7.21	1.6
51	12078	7.31	1.6
51	12228	7.41	1.6
51	12378	7.51	1.6
51	12529	7.61	1.6
51	12892	7.71	1.6
51	13042	7.81	1.6
51	13192	7.91	1.6
51	13346	8.01	1.6
51	13496	8.11	1.6
51	13646	8.21	1.6
51	13796	8.31	1.6
51	13946	8.41	1.6
51	14096	8.51	1.6
51	14246	8.61	1.6
51	14609	8.71	1.6
51	14760	8.81	1.6
51	14910	8.91	1.6
51	15064	9.01	1.6
51	15214	9.11	1.6
51	15364	9.21	1.6
51	15514	9.31	1.6
51	15664	9.41	1.6
51	15814	9.51	1.6
51	15964	9.61	1.6
51	16115	9.71	1.6
51	16522	9.81	1.6
51	16672	9.91	1.6
51	16826	10.01	1.6
51	16976	10.11	1.6
51	17126	10.21	1.6
51	17276	10.31	1.6
51	17426	10.41	1.6
51	17576	10.51	1.6
51	17726	10.61	1.6
51	17876	10.71	1.6
51	18239	10.81	1.6
51	18390	10.91	1.6
51	18544	11.01	1.6
51	18694	11.11	1.6
51	18844	11.21	1.6
51	18994	11.31	1.6
51	19144	11.41	1.6
51	19294	11.51	1.6
51	19444	11.61	1.6
51	19594	11.71	1.6
51	19745	11.81	1.6
51	20108	11.91	1.6
51	20262	12.01	1.6
51	20412	12.11	1.6
51	20562	12.21	1.6
51	20712	12.31	1.6
51	20862	12.41	1.6
51	21012	12.51	1.6
51	21162	12.61	1.6
51	21312	12.71	1.6
51	21462	12.81	1.6
51	21845	12.91	1.6
51	22000	13.01	1.6
51	22150	13.11	1.6
51	22300	13.21	1.6
51	22450	13.31	1.6
51	22600	13.41	1.6
51	22750	13.51	1.6
51	22900	13.61	1.6
51	23050	13.71	1.6
51	23200	13.81	1.6
51	23351	13.91	1.6
51	23738	14.01	1.6
51	23888	14.11	1.6
51	24038	14.21	1.6
51	24188	14.31	1.6
51	24338	14.41	1.6
51	24488	14.51	1.6
51	24638	14.61	1.6
51	24788	14.71	1.6
51	24938	14.81	1.6
51	25088	14.91	1.6
51	25242	15.01	1.6
51	25392	15.11	1.6
51	25542	15.21	1.6
51	25692	15.31	1.6
51	25842	15.41	1.6
51	25992	15.51	1.6
51	26142	15.61	1.6
51	26292	15.71	1.6
51	26442	15.81	1.6
51	26592	15.91	1.6
51	26746	16.01	1.6
51	26896	16.11	1.6
51	27046	16.21	1.6
51	27196	16.31	1.6
51	27346	16.41	1.6
51	27496	16.51	1.6
51	27646	16.61	1.6
51	27796	16.71	1.6
51	27946	16.81	1.6
51	28096	16.91	1.6
51	28250	17.01	1.6
51	28400	17.11	1.6
51	28550	17.21	1.6
51	28700	17.31	1.6
51	28850	17.41	1.6
51	29000	17.51	1.6
51	29150	17.61	1.6
51	29300	17.71	1.6
51	29450	17.81	1.6
51	29600	17.91	1.6
51	29754	18.01	1.6
51	29904	18.11	1.6
51	30054	18.21	1.6
51	30204	18.31	1.6
51	30354	18.41	1.6
51	30504	18.51	1.6
51	30654	18.61	1.6
51	30804	18.71	1.6
51	30954	18.81	1.6
51	31104	18.91	1.6
51	31258	19.01	1.6
51	31408	19.11	1.6
51	31558	19.21	1.6
51	31708	19.31	1.6
51	31858	19.41	1.6
51	32008	19.51	1.6
51	32158	19.61	1.6
51	32308	19.71	1.6
51	32458	19.81	1.6
51	32608	19.91	1.6
51	32762	20.01	1.6
51	32912	20.11	1.6
51	33062	20.21	1.6
51	33212	20.31	1.6
51	33362	20.41	1.6
51	33512	20.51	1.6
51	33662	20.61	1.6
51	33812	20.71	1.6
51	33962	20.81	1.6
51	34112	20.91	1.6
51	34266	21.01	1.6
51	34416	21.11	1.6
51	34566	21.21	1.6
51	34716	21.31	1.6
51	34866	21.41	1.6
51	35016	21.51	1.6
51	35166	21.61	1.6
51	35316	21.71	1.6
51	35466	21.81	1.6
51	35616	21.91	1.6
51	35770	22.01	1.6
51	35920	22.11	1.6
51	36070	22.21	1.6
51	36220	22.31	1.6
51	36370	22.41	1.6
51	36520	22.51	1.6
51	36670	22.61	1.6
51	36820	22.71	1.6
51	36970	22.81	1.6
51	37120	22.91	1.6
51	37274	23.01	1.6
51	37424	23.11	1.6
51	37574	23.21	1.6
51	37724	23.31	1.6
51	37874	23.41	1.6
51	38024	23.51	1.6
51	38174	23.61	1.6
51	38324	23.71	1.6
51	38474	23.81	1.6
51	38624	23.91	1.6
51	38778	24.01	1.6
51	38928	24.11	1.6
51	39078	24.21	1.6
51	39228	24.31	1.6
51	39378	24.41	1.6
51	39528	24.51	1.6
51	39678	24.61	1.6
51	39828	24.71	1.6
51	39978	24.81	1.6
51	40128	24.91	1.6
51	40282	25.01	1.6
51	40432	25.11	1.6
51	40582	25.21	1.6
51	40732	25.31	1.6
51	40882	25.41	1.6
51	41032	25.51	1.6
51	41182	25.61	1.6
51	41333	25.71	1.6
51	41483	25.81	1.6
51	41633	25.91	1.6
51	41787	26.01	1.6
51	41937	26.11	1.6
51	42087	26.21	1.6
51	42237	26.31	1.6
51	42387	26.41	1.6
51	42537	26.51	1.6
51	42687	26.61	1.6
51	42837	26.71	1.6
51	42987	26.81	1.6
51	43137	26.91	1.6
51	43291	27.01	1.6
51	43441	27.11	1.6
51	43591	27.21	1.6
51	43741	27.31	1.6
51	43891	27.41	1.6
51	44041	27.51	1.6
51	44191	27.61	1.6
51	44341	27.71	1.6
51	44491	27.81	1.6
51	44641	27.91	1.6
51	44795	28.01	1.6
51	44945	28.11	1.6
51	45095	28.21	1.6
51	45245	28.31	1.6
51	45395	28.41	1.6
51	45545	28.51	1.6
51	45695	28.61	1.6
51	45845	28.71	1.6
51	45995	28.81	1.6
51	46145	28.91	1.6
51	46299	29.01	1.6
51	46449	29.11	1.6
51	46599	29.21	1.6
51	46749	29.31	1.6
51	46899	29.41	1.6
51	47049	29.51	1.6
51	47199	29.61	1.6
51	47349	29.71	1.6
51	47499	29.81	1.6
51	47649	29.91	1.6
51	47803	30.01	1.6
51	47953	30.11	1.6
51	48103	30.21	1.6
51	48253	30.31	1.6
51	48403	30.41	1.6
51	48553	30.51	1.6
51	48703	30.61	1.6
51	48853	30.71	1.6
51	49003	30.81	1.6
51	49153	30.91	1.6
51	49307	31.01	1.6
50	26	0.21	496.55
50	176	0.31	494.939
50	326	0.41	493.328
50	476	0.51	491.717
50	626	0.61	490.106
50	776	0.71	488.495
50	926	0.81	486.884
50	1076	0.91	485.273
50	1230	1.01	483.662
50	1381	1.11	482.051
50	1532	1.21	480.44
50	1683	1.31	478.829
50	2046	1.41	477.218
50	2196	1.51	475.607
50	2346	1.61	473.996
50	2496	1.71	472.384
50	2646	1.81	470.773
50	2796	1.91	469.162
50	2950	2.01	467.551
50	3100	2.11	465.94
50	3250	2.21	464.329
50	3400	2.31	462.718
50	3763	2.41	461.107
50	3914	2.51	459.496
50	4064	2.61	457.885
50	4214	2.71	456.273
50	4364	2.81	454.662
50	4514	2.91	453.051
50	4668	3.01	451.44
50	4818	3.11	449.829
50	4968	3.21	448.218
50	5118	3.31	446.607
50	5269	3.41	444.996
50	5676	3.51	443.385
50	5826	3.61	441.773
50	5976	3.71	440.162
50	6126	3.81	438.551
50	6276	3.91	436.94
50	6430	4.01	435.329
50	6580	4.11	433.718
50	6730	4.21	432.107
50	6880	4.31	430.496
50	7030	4.41	428.884
50	7393	4.51	427.273
50	7544	4.61	425.662
50	7694	4.71	424.051
50	7844	4.81	422.44
50	7994	4.91	420.829
50	8148	5.01	419.218
50	8298	5.11	417.607
50	8448	5.21	415.996
50	8598	5.31	414.384
50	8748	5.41	412.773
50	8899	5.51	411.162
50	9262	5.61	409.551
50	9412	5.71	407.94
50	9562	5.81	406.329
50	9712	5.91	404.718
50	9866	6.01	403.107
50	10016	6.11	401.496
50	10166	6.21	399.884
50	10316	6.31	398.273
50	10466	6.41	396.662
50	10616	6.51	395.051
50	11023	6.61	393.44
50	11174	6.71	391.829
50	11324	6.81	390.218
50	11474	6.91	388.607
50	11628	7.01	386.996
50	11778	7.11	385.385
50	11928	7.21	383.773
50	12078	7.31	382.162
50	12228	7.41	380.551
50	12378	7.51	378.94
50	12529	7.61	377.329
50	12892	7.71	375.718
50	13042	7.81	374.107
50	13192	7.91	372.496
50	13346	8.01	370.885
50	13496	8.11	369.273
50	13646	8.21	367.662
50	13796	8.31	366.051
50	13946	8.41	364.44
50	14096	8.51	362.829
50	14246	8.61	361.218
50	14609	8.71	359.607
50	14760	8.81	357.996
50	14910	8.91	356.385
50	15064	9.01	354.773
50	15214	9.11	353.162
50	15364	9.21	351.551
50	15514	9.31	349.94
50	15664	9.41	348.329
50	15814	9.51	346.718
50	15964	9.61	345.107
50	16115	9.71	343.496
50	16522	9.81	341.885
50	16672	9.91	340.273
50	16826	10.01	338.662
50	16976	10.11	337.051
50	17126	10.21	335.44
50	17276	10.31	333.829
50	17426	10.41	332.218
50	17576	10.51	330.607
50	17726	10.61	328.996
50	17876	10.71	327.385
50	18239	10.81	325.773
50	18390	10.91	324.162
50	18544	11.01	322.551
50	18694	11.11	320.94
50	18844	11.21	319.329
50	18994	11.31	317.718
50	19144	11.41	316.107
50	19294	11.51	314.496
50	19444	11.61	312.885
50	19594	11.71	311.273
50	19745	11.81	309.662
50	20108	11.91	308.051
50	20262	12.01	306.44
50	20412	12.11	304.829
50	20562	12.21	303.218
50	20712	12.31	301.607
50	20862	12.41	299.996
50	21012	12.51	298.385
50	21162	12.61	296.773
50	21312	12.71	295.162
50	21462	12.81	293.551
50	21845	12.91	291.94
50	22000	13.01	290.329
50	22150	13.11	288.718
50	22300	13.21	287.107
50	22450	13.31	285.496
50	22600	13.41	283.885
50	22750	13.51	282.273
50	22900	13.61	280.662
50	23050	13.71	279.051
50	23200	13.81	277.44
50	23351	13.91	275.829
50	23738	14.01	274.218
50	23888	14.11	272.607
50	24038	14.21	270.996
50	24188	14.31	269.385
50	24338	14.41	267.773
50	24488	14.51	266.162
50	24638	14.61	264.551
50	24788	14.71	262.94
50	24938	14.81	261.329
50	25088	14.91	259.718
50	25242	15.01	258.107
50	25392	15.11	256.496
50	25542	15.21	254.885
50	25692	15.31	253.273
50	25842	15.41	251.662
50	25992	15.51	250.051
50	26142	15.61	248.44
50	26292	15.71	246.829
50	26442	15.81	245.218
50	26592	15.91	243.607
50	26746	16.01	241.996
50	26896	16.11	240.385
50	27046	16.21	238.773
50	27196	16.31	237.162
50	27346	16.41	235.551
50	27496	16.51	233.94
50	27646	16.61	232.329
50	27796	16.71	230.718
50	27946	16.81	229.107
50	28096	16.91	227.496
50	28250	17.01	225.885
50	28400	17.11	224.274
50	28550	17.21	222.662
50	28700	17.31	221.051
50	28850	17.41	219.44
50	29000	17.51	217.829
50	29150	17.61	216.218
50	29300	17.71	214.607
50	29450	17.81	212.996
50	29600	17.91	211.385
50	29754	18.01	209.774
50	29904	18.11	208.162
50	30054	18.21	206.551
50	30204	18.31	204.94
50	30354	18.41	203.329
50	30504	18.51	201.718
50	30654	18.61	200.107
50	30804	18.71	198.496
50	30954	18.81	196.885
50	31104	18.91	195.274
50	31258	19.01	193.662
50	31408	19.11	192.051
50	31558	19.21	190.44
50	31708	19.31	188.829
50	31858	19.41	187.218
50	32008	19.51	185.607
50	32158	19.61	183.996
50	32308	19.71	182.385
50	32458	19.81	180.774
50	32608	19.91	179.162
50	32762	20.01	177.551
50	32912	20.11	175.94
50	33062	20.21	174.329
50	33212	20.31	172.718
50	33362	20.41	171.107
50	33512	20.51	169.496
50	33662	20.61	167.885
50	33812	20.71	166.274
50	33962	20.81	164.662
50	34112	20.91	163.051
50	34266	21.01	161.44
50	34416	21.11	159.829
50	34566	21.21	158.218
50	34716	21.31	156.607
50	34866	21.41	154.996
50	35016	21.51	153.385
50	35166	21.61	151.774
50	35316	21.71	150.162
50	35466	21.81	148.551
50	35616	21.91	146.94
50	35770	22.01	145.329
50	35920	22.11	143.718
50	36070	22.21	142.107
50	36220	22.31	140.496
50	36370	22.41	138.885
50	36520	22.51	137.274
50	36670	22.61	135.662
50	36820	22.71	134.051
50	36970	22.81	132.44
50	37120	22.91	130.829
50	37274	23.01	129.218
50	37424	23.11	127.607
50	37574	23.21	125.996
50	37724	23.31	124.385
50	37874	23.41	122.774
50	38024	23.51	121.162
50	38174	23.61	119.551
50	38324	23.71	117.94
50	38474	23.81	116.329
50	38624	23.91	114.718
50	38778	24.01	113.107
50	38928	24.11	111.496
50	39078	24.21	109.885
50	39228	24.31	108.274
50	39378	24.41	106.662
50	39528	24.51	105.051
50	39678	24.61	103.44
50	39828	24.71	101.829
50	39978	24.81	100.218
50	40128	24.91	98.6069
50	40282	25.01	96.9958
50	40432	25.11	95.3847
50	40582	25.21	93.7736
50	40732	25.31	92.1625
50	40882	25.41	90.5514
50	41032	25.51	88.9403
50	41182	25.61	87.3292
50	41333	25.71	85.718
50	41483	25.81	84.1069
50	41633	25.91	82.4958
50	41787	26.01	80.8847
50	41937	26.11	79.2736
50	42087	26.21	77.6625
50	42237	26.31	76.0514
50	42387	26.41	74.4403
50	42537	26.51	72.8292
50	42687	26.61	71.2181
50	42837	26.71	69.6069
50	42987	26.81	67.9958
50	43137	26.91	66.3847
50	43291	27.01	64.7736
50	43441	27.11	63.1625
50	43591	27.21	61.5514
50	43741	27.31	59.9403
50	43891	27.41	58.3292
50	44041	27.51	56.7181
50	44191	27.61	55.107
50	44341	27.71	53.4958
50	44491	27.81	51.8847
50	44641	27.91	50.2736
50	44795	28.01	48.6625
50	44945	28.11	47.0514
50	45095	28.21	45.4403
50	45245	28.31	43.8292
50	45395	28.41	42.2181
50	45545	28.51	40.607
50	45695	28.61	38.9959
50	45845	28.71	37.3847
50	45995	28.81	35.7736
50	46145	28.91	34.1625
50	46299	29.01	32.5514
50	46449	29.11	30.9403
50	46599	29.21	29.3292
50	46749	29.31	27.7181
50	46899	29.41	26.107
50	47049	29.51	24.4959
50	47199	29.61	22.8848
50	47349	29.71	21.2736
50	47499	29.81	19.6625
50	47649	29.91	18.0514
50	47803	30.01	16.4403
50	47953	30.11	14.8292
50	48103	30.21	13.2181
50	48253	30.31	11.607
50	48403	30.41	9.99588
50	48553	30.51	8.38477
50	48703	30.61	6.77366
50	48853	30.71	5.16255
50	49003	30.81	3.55144
50	49153	30.91	1.94033
50	49307	31.01	0.329215
49	26	0.21	16.11
49	176	0.31	16.11
49	326	0.41	16.1101
49	476	0.51	16.1101
49	626	0.61	16.1102
49	776	0.71	16.1103
49	926	0.81	16.1103
49	1076	0.91	16.1104
49	1230	1.01	16.1105
49	1381	1.11	16.1105
49	1532	1.21	16.1106
49	1683	1.31	16.1107
49	2046	1.41	16.1107
49	2196	1.51	16.1108
49	2346	1.61	16.1108
49	2496	1.71	16.1109
49	2646	1.81	16.1109
49	2796	1.91	16.111
49	2950	2.01	16.111
49	3100	2.11	16.111
49	3250	2.21	16.1111
49	3400	2.31	16.1111
49	3763	2.41	16.1111
49	3914	2.51	16.1111
49	4064	2.61	16.1111
49	4214	2.71	16.1111
49	4364	2.81	16.1111
49	4514	2.91	16.1111
49	4668	3.01	16.1111
49	4818	3.11	16.1111
49	4968	3.21	16.1111
49	5118	3.31	16.1111
49	5269	3.41	16.1111
49	5676	3.51	16.1111
49	5826	3.61	16.1111
49	5976	3.71	16.1111
49	6126	3.81	16.1111
49	6276	3.91	16.1111
49	6430	4.01	16.1111
49	6580	4.11	16.1111
49	6730	4.21	16.1111
49	6880	4.31	16.1111
49	7030	4.41	16.1111
49	7393	4.51	16.1111
49	7544	4.61	16.1111
49	7694	4.71	16.1111
49	7844	4.81	16.1111
49	7994	4.91	16.1111
49	8148	5.01	16.1111
49	8298	5.11	16.1111
49	8448	5.21	16.1111
49	8598	5.31	16.1111
49	8748	5.41	16.1111
49	8899	5.51	16.1111
49	9262	5.61	16.1111
49	9412	5.71	16.1111
49	9562	5.81	16.1111
49	9712	5.91	16.1111
49	9866	6.01	16.1111
49	10016	6.11	16.1111
49	10166	6.21	16.1111
49	10316	6.31	16.1111
49	10466	6.41	16.1111
49	10616	6.51	16.1111
49	11023	6.61	16.1111
49	11174	6.71	16.1111
49	11324	6.81	16.1111
49	11474	6.91	16.1111
49	11628	7.01	16.1111
49	11778	7.11	16.1111
49	11928	7.21	16.1111
49	12078	7.31	16.1111
49	12228	7.41	16.1111
49	12378	7.51	16.1111
49	12529	7.61	16.1111
49	12892	7.71	16.1111
49	13042	7.81	16.1111
49	13192	7.91	16.1111
49	13346	8.01	16.1111
49	13496	8.11	16.1111
49	13646	8.21	16.1111
49	13796	8.31	16.1111
49	13946	8.41	16.1111
49	14096	8.51	16.1111
49	14246	8.61	16.1111
49	14609	8.71	16.1111
49	14760	8.81	16.1111
49	14910	8.91	16.1111
49	15064	9.01	16.1111
49	15214	9.11	16.1111
49	15364	9.21	16.1111
49	15514	9.31	16.1111
49	15664	9.41	16.1111
49	15814	9.51	16.1111
49	15964	9.61	16.1111
49	16115	9.71	16.1111
49	16522	9.81	16.1111
49	16672	9.91	16.1111
49	16826	10.01	16.1111
49	16976	10.11	16.1111
49	17126	10.21	16.1111
49	17276	10.31	16.1111
49	17426	10.41	16.1111
49	17576	10.51	16.1111
49	17726	10.61	16.1111
49	17876	10.71	16.1111
49	18239	10.81	16.1111
49	18390	10.91	16.1111
49	18544	11.01	16.1111
49	18694	11.11	16.1111
49	18844	11.21	16.1111
49	18994	11.31	16.1111
49	19144	11.41	16.1111
49	19294	11.51	16.1111
49	19444	11.61	16.1111
49	19594	11.71	16.1111
49	19745	11.81	16.1111
49	20108	11.91	16.1111
49	20262	12.01	16.1111
49	20412	12.11	16.1111
49	20562	12.21	16.1111
49	20712	12.31	16.1111
49	20862	12.41	16.1111
49	21012	12.51	16.1111
49	21162	12.61	16.1111
49	21312	12.71	16.1111
49	21462	12.81	16.1111
49	21845	12.91	16.1111
49	22000	13.01	16.1111
49	22150	13.11	16.1111
49	22300	13.21	16.1111
49	22450	13.31	16.1111
49	22600	13.41	16.1111
49	22750	13.51	16.1111
49	22900	13.61	16.1111
49	23050	13.71	16.1111
49	23200	13.81	16.1111
49	23351	13.91	16.1111
49	23738	14.01	16.1111
49	23888	14.11	16.1111
49	24038	14.21	16.1111
49	24188	14.31	16.1111
49	24338	14.41	16.1111
49	24488	14.51	16.1111
49	24638	14.61	16.1111
49	24788	14.71	16.1111
49	24938	14.81	16.1111
49	25088	14.91	16.1111
49	25242	15.01	16.1111
49	25392	15.11	16.1111
49	25542	15.21	16.1111
49	25692	15.31	16.1111
49	25842	15.41	16.1111
49	25992	15.51	16.1111
49	26142	15.61	16.1111
49	26292	15.71	16.1111
49	26442	15.81	16.1111
49	26592	15.91	16.1111
49	26746	16.01	16.1111
49	26896	16.11	16.1111
49	27046	16.21	16.1111
49	27196	16.31	16.1111
49	27346	16.41	16.1111
49	27496	16.51	16.1111
49	27646	16.61	16.1111
49	27796	16.71	16.1111
49	27946	16.81	16.1111
49	28096	16.91	16.1111
49	28250	17.01	16.1111
49	28400	17.11	16.1111
49	28550	17.21	16.1111
49	28700	17.31	16.1111
49	28850	17.41	16.1111
49	29000	17.51	16.1111
49	29150	17.61	16.1111
49	29300	17.71	16.1111
49	29450	17.81	16.1111
49	29600	17.91	16.1111
49	29754	18.01	16.1111
49	29904	18.11	16.1111
49	30054	18.21	16.1111
49	30204	18.31	16.1111
49	30354	18.41	16.1111
49	30504	18.51	16.1111
49	30654	18.61	16.1111
49	30804	18.71	16.1111
49	30954	18.81	16.1111
49	31104	18.91	16.1111
49	31258	19.01	16.1111
49	31408	19.11	16.1111
49	31558	19.21	16.1111
49	31708	19.31	16.1111
49	31858	19.41	16.1111
49	32008	19.51	16.1111
49	32158	19.61	16.1111
49	32308	19.71	16.1111
49	32458	19.81	16.1111
49	32608	19.91	16.1111
49	32762	20.01	16.1111
49	32912	20.11	16.1111
49	33062	20.21	16.1111
49	33212	20.31	16.1111
49	33362	20.41	16.1111
49	33512	20.51	16.1111
49	33662	20.61	16.1111
49	33812	20.71	16.1111
49	33962	20.81	16.1111
49	34112	20.91	16.1111
49	34266	21.01	16.1111
49	34416	21.11	16.1111
49	34566	21.21	16.1111
49	34716	21.31	16.1111
49	34866	21.41	16.1111
49	35016	21.51	16.1111
49	35166	21.61	16.1111
49	35316	21.71	16.1111
49	35466	21.81	16.1111
49	35616	21.91	16.1111
49	35770	22.01	16.1111
49	35920	22.11	16.1111
49	36070	22.21	16.1111
49	36220	22.31	16.1111
49	36370	22.41	16.1111
49	36520	22.51	16.1111
49	36670	22.61	16.1111
49	36820	22.71	16.1111
49	36970	22.81	16.1111
49	37120	22.91	16.1111
49	37274	23.01	16.1111
49	37424	23.11	16.1111
49	37574	23.21	16.1111
49	37724	23.31	16.1111
49	37874	23.41	16.1111
49	38024	23.51	16.1111
49	38174	23.61	16.1111
49	38324	23.71	16.1111
49	38474	23.81	16.1111
49	38624	23.91	16.1111
49	38778	24.01	16.1111
49	38928	24.11	16.1111
49	39078	24.21	16.1111
49	39228	24.31	16.1111
49	39378	24.41	16.1111
49	39528	24.51	16.1111
49	39678	24.61	16.1111
49	39828	24.71	16.1111
49	39978	24.81	16.1111
49	40128	24.91	16.1111
49	40282	25.01	16.1111
49	40432	25.11	16.1111
49	40582	25.21	16.1111
49	40732	25.31	16.1111
49	40882	25.41	16.1111
49	41032	25.51	16.1111
49	41182	25.61	16.1111
49	41333	25.71	16.1111
49	41483	25.81	16.1111
49	41633	25.91	16.1111
49	41787	26.01	16.1111
49	41937	26.11	16.1111
49	42087	26.21	16.1111
49	42237	26.31	16.1111
49	42387	26.41	16.1111
49	42537	26.51	16.1111
49	42687	26.61	16.1111
49	42837	26.71	16.1111
49	42987	26.81	16.1111
49	43137	26.91	16.1111
49	43291	27.01	16.1111
49	43441	27.11	16.1111
49	43591	27.21	16.1111
49	43741	27.31	16.1111
49	43891	27.41	16.1111
49	44041	27.51	16.1111
49	44191	27.61	16.1111
49	44341	27.71	16.1111
49	44491	27.81	16.1111
49	44641	27.91	16.1111
49	44795	28.01	16.1111
49	44945	28.11	16.1111
49	45095	28.21	16.1111
49	45245	28.31	16.1111
49	45395	28.41	16.1111
49	45545	28.51	16.1111
49	45695	28.61	16.1111
49	45845	28.71	16.1111
49	45995	28.81	16.1111
49	46145	28.91	16.1111
49	46299	29.01	16.1111
49	46449	29.11	16.1111
49	46599	29.21	16.1111
49	46749	29.31	16.1111
49	46899	29.41	16.1111
49	47049	29.51	16.1111
49	47199	29.61	16.1111
49	47349	29.71	16.1111
49	47499	29.81	16.1111
49	47649	29.91	16.1111
49	47803	30.01	16.1111
49	47953	30.11	16.1111
49	48103	30.21	16.1111
49	48253	30.31	16.1111
49	48403	30.41	16.1111
49	48553	30.51	16.1111
49	48703	30.61	16.1111
49	48853	30.71	16.1111
49	49003	30.81	16.1111
49	49153	30.91	16.1111
49	49307	31.01	16.1111
45	26	0.21	0
45	176	0.31	0
45	326	0.41	0
45	476	0.51	0
45	626	0.61	0
45	776	0.71	0
45	926	0.81	0
45	1076	0.91	0
45	1230	1.01	0
45	1381	1.11	0
45	1532	1.21	0
45	1683	1.31	0
45	2046	1.41	0
45	2196	1.51	0
45	2346	1.61	0
45	2496	1.71	0
45	2646	1.81	0
45	2796	1.91	0
45	2950	2.01	0
45	3100	2.11	0
45	3250	2.21	0
45	3400	2.31	0
45	3763	2.41	0
45	3914	2.51	0
45	4064	2.61	0
45	4214	2.71	0
45	4364	2.81	0
45	4514	2.91	0
45	4668	3.01	0
45	4818	3.11	0
45	4968	3.21	0
45	5118	3.31	0
45	5269	3.41	0
45	5676	3.51	0
45	5826	3.61	0
45	5976	3.71	0
45	6126	3.81	0
45	6276	3.91	0
45	6430	4.01	0
45	6580	4.11	0
45	6730	4.21	0
45	6880	4.31	0
45	7030	4.41	0
45	7393	4.51	0
45	7544	4.61	0
45	7694	4.71	0
45	7844	4.81	0
45	7994	4.91	0
45	8148	5.01	0
45	8298	5.11	0
45	8448	5.21	0
45	8598	5.31	0
45	8748	5.41	0
45	8899	5.51	0
45	9262	5.61	0
45	9412	5.71	0
45	9562	5.81	0
45	9712	5.91	0
45	9866	6.01	0
45	10016	6.11	0
45	10166	6.21	0
45	10316	6.31	0
45	10466	6.41	0
45	10616	6.51	0
45	11023	6.61	0
45	11174	6.71	0
45	11324	6.81	0
45	11474	6.91	0
45	11628	7.01	0
45	11778	7.11	0
45	11928	7.21	0
45	12078	7.31	0
45	12228	7.41	0
45	12378	7.51	0
45	12529	7.61	0
45	12892	7.71	0
45	13042	7.81	0
45	13192	7.91	0
45	13346	8.01	0
45	13496	8.11	0
45	13646	8.21	0
45	13796	8.31	0
45	13946	8.41	0
45	14096	8.51	0
45	14246	8.61	0
45	14609	8.71	0
45	14760	8.81	0
45	14910	8.91	0
45	15064	9.01	0
45	15214	9.11	0
45	15364	9.21	0
45	15514	9.31	0
45	15664	9.41	0
45	15814	9.51	0
45	15964	9.61	0
45	16115	9.71	0
45	16522	9.81	0
45	16672	9.91	0
45	16826	10.01	0
45	16976	10.11	0
45	17126	10.21	0
45	17276	10.31	0
45	17426	10.41	0
45	17576	10.51	0
45	17726	10.61	0
45	17876	10.71	0
45	18239	10.81	0
45	18390	10.91	0
45	18544	11.01	0
45	18694	11.11	0
45	18844	11.21	0
45	18994	11.31	0
45	19144	11.41	0
45	19294	11.51	0
45	19444	11.61	0
45	19594	11.71	0
45	19745	11.81	0
45	20108	11.91	0
45	20262	12.01	0
45	20412	12.11	0
45	20562	12.21	0
45	20712	12.31	0
45	20862	12.41	0
45	21012	12.51	0
45	21162	12.61	0
45	21312	12.71	0
45	21462	12.81	0
45	21845	12.91	0
45	22000	13.01	0
45	22150	13.11	0
45	22300	13.21	0
45	22450	13.31	0
45	22600	13.41	0
45	22750	13.51	0
45	22900	13.61	0
45	23050	13.71	0
45	23200	13.81	0
45	23351	13.91	0
45	23738	14.01	0
45	23888	14.11	0
45	24038	14.21	0
45	24188	14.31	0
45	24338	14.41	0
45	24488	14.51	0
45	24638	14.61	0
45	24788	14.71	0
45	24938	14.81	0
45	25088	14.91	0
45	25242	15.01	0
45	25392	15.11	0
45	25542	15.21	0
45	25692	15.31	0
45	25842	15.41	0
45	25992	15.51	0
45	26142	15.61	0
45	26292	15.71	0
45	26442	15.81	0
45	26592	15.91	0
45	26746	16.01	0
45	26896	16.11	0
45	27046	16.21	0
45	27196	16.31	0
45	27346	16.41	0
45	27496	16.51	0
45	27646	16.61	0
45	27796	16.71	0
45	27946	16.81	0
45	28096	16.91	0
45	28250	17.01	0
45	28400	17.11	0
45	28550	17.21	0
45	28700	17.31	0
45	28850	17.41	0
45	29000	17.51	0
45	29150	17.61	0
45	29300	17.71	0
45	29450	17.81	0
45	29600	17.91	0
45	29754	18.01	0
45	29904	18.11	0
45	30054	18.21	0
45	30204	18.31	0
45	30354	18.41	0
45	30504	18.51	0
45	30654	18.61	0
45	30804	18.71	0
45	30954	18.81	0
45	31104	18.91	0
45	31258	19.01	0
45	31408	19.11	0
45	31558	19.21	0
45	31708	19.31	0
45	31858	19.41	0
45	32008	19.51	0
45	32158	19.61	0
45	32308	19.71	0
45	32458	19.81	0
45	32608	19.91	0
45	32762	20.01	0
45	32912	20.11	0
45	33062	20.21	0
45	33212	20.31	0
45	33362	20.41	0
45	33512	20.51	0
45	33662	20.61	0
45	33812	20.71	0
45	33962	20.81	0
45	34112	20.91	0
45	34266	21.01	0
45	34416	21.11	0
45	34566	21.21	0
45	34716	21.31	0
45	34866	21.41	0
45	35016	21.51	0
45	35166	21.61	0
45	35316	21.71	0
45	35466	21.81	0
45	35616	21.91	0
45	35770	22.01	0
45	35920	22.11	0
45	36070	22.21	0
45	36220	22.31	0
45	36370	22.41	0
45	36520	22.51	0
45	36670	22.61	0
45	36820	22.71	0
45	36970	22.81	0
45	37120	22.91	0
45	37274	23.01	0
45	37424	23.11	0
45	37574	23.21	0
45	37724	23.31	0
45	37874	23.41	0
45	38024	23.51	0
45	38174	23.61	0
45	38324	23.71	0
45	38474	23.81	0
45	38624	23.91	0
45	38778	24.01	0
45	38928	24.11	0
45	39078	24.21	0
45	39228	24.31	0
45	39378	24.41	0
45	39528	24.51	0
45	39678	24.61	0
45	39828	24.71	0
45	39978	24.81	0
45	40128	24.91	0
45	40282	25.01	0
45	40432	25.11	0
45	40582	25.21	0
45	40732	25.31	0
45	40882	25.41	0
45	41032	25.51	0
45	41182	25.61	0
45	41333	25.71	0
45	41483	25.81	0
45	41633	25.91	0
45	41787	26.01	0
45	41937	26.11	0
45	42087	26.21	0
45	42237	26.31	0
45	42387	26.41	0
45	42537	26.51	0
45	42687	26.61	0
45	42837	26.71	0
45	42987	26.81	0
45	43137	26.91	0
45	43291	27.01	0
45	43441	27.11	0
45	43591	27.21	0
45	43741	27.31	0
45	43891	27.41	0
45	44041	27.51	0
45	44191	27.61	0
45	44341	27.71	0
45	44491	27.81	0
45	44641	27.91	0
45	44795	28.01	0
45	44945	28.11	0
45	45095	28.21	0
45	45245	28.31	0
45	45395	28.41	0
45	45545	28.51	0
45	45695	28.61	0
45	45845	28.71	0
45	45995	28.81	0
45	46145	28.91	0
45	46299	29.01	0
45	46449	29.11	0
45	46599	29.21	0
45	46749	29.31	0
45	46899	29.41	0
45	47049	29.51	0
45	47199	29.61	0
45	47349	29.71	0
45	47499	29.81	0
45	47649	29.91	0
45	47803	30.01	0
45	47953	30.11	0
45	48103	30.21	0
45	48253	30.31	0
45	48403	30.41	0
45	48553	30.51	0
45	48703	30.61	0
45	48853	30.71	0
45	49003	30.81	0
45	49153	30.91	0
45	49307	31.01	0
44	26	0.21	-1
44	176	0.31	-1
44	326	0.41	-1
44	476	0.51	-1
44	626	0.61	-1
44	776	0.71	-1
44	926	0.81	-1
44	1076	0.91	-1
44	1230	1.01	-1
44	1381	1.11	-1
44	1532	1.21	-1
44	1683	1.31	-1
44	2046	1.41	-1
44	2196	1.51	-1
44	2346	1.61	-1
44	2496	1.71	-1
44	2646	1.81	-1
44	2796	1.91	-1
44	2950	2.01	-1
44	3100	2.11	-1
44	3250	2.21	-1
44	3400	2.31	-1
44	3763	2.41	-1
44	3914	2.51	-1
44	4064	2.61	-1
44	4214	2.71	-1
44	4364	2.81	-1
44	4514	2.91	-1
44	4668	3.01	-1
44	4818	3.11	-1
44	4968	3.21	-1
44	5118	3.31	-1
44	5269	3.41	-1
44	5676	3.51	-1
44	5826	3.61	-1
44	5976	3.71	-1
44	6126	3.81	-1
44	6276	3.91	-1
44	6430	4.01	-1
44	6580	4.11	-1
44	6730	4.21	-1
44	6880	4.31	-1
44	7030	4.41	-1
44	7393	4.51	-1
44	7544	4.61	-1
44	7694	4.71	-1
44	7844	4.81	-1
44	7994	4.91	-1
44	8148	5.01	-1
44	8298	5.11	-1
44	8448	5.21	-1
44	8598	5.31	-1
44	8748	5.41	-1
44	8899	5.51	-1
44	9262	5.61	-1
44	9412	5.71	-1
44	9562	5.81	-1
44	9712	5.91	-1
44	9866	6.01	-1
44	10016	6.11	-1
44	10166	6.21	-1
44	10316	6.31	-1
44	10466	6.41	-1
44	10616	6.51	-1
44	11023	6.61	-1
44	11174	6.71	-1
44	11324	6.81	-1
44	11474	6.91	-1
44	11628	7.01	-1
44	11778	7.11	-1
44	11928	7.21	-1
44	12078	7.31	-1
44	12228	7.41	-1
44	12378	7.51	-1
44	12529	7.61	-1
44	12892	7.71	-1
44	13042	7.81	-1
44	13192	7.91	-1
44	13346	8.01	-1
44	13496	8.11	-1
44	13646	8.21	-1
44	13796	8.31	-1
44	13946	8.41	-1
44	14096	8.51	-1
44	14246	8.61	-1
44	14609	8.71	-1
44	14760	8.81	-1
44	14910	8.91	-1
44	15064	9.01	-1
44	15214	9.11	-1
44	15364	9.21	-1
44	15514	9.31	-1
44	15664	9.41	-1
44	15814	9.51	-1
44	15964	9.61	-1
44	16115	9.71	-1
44	16522	9.81	-1
44	16672	9.91	-1
44	16826	10.01	-1
44	16976	10.11	-1
44	17126	10.21	-1
44	17276	10.31	-1
44	17426	10.41	-1
44	17576	10.51	-1
44	17726	10.61	-1
44	17876	10.71	-1
44	18239	10.81	-1
44	18390	10.91	-1
44	18544	11.01	-1
44	18694	11.11	-1
44	18844	11.21	-1
44	18994	11.31	-1
44	19144	11.41	-1
44	19294	11.51	-1
44	19444	11.61	-1
44	19594	11.71	-1
44	19745	11.81	-1
44	20108	11.91	-1
44	20262	12.01	-1
44	20412	12.11	-1
44	20562	12.21	-1
44	20712	12.31	-1
44	20862	12.41	-1
44	21012	12.51	-1
44	21162	12.61	-1
44	21312	12.71	-1
44	21462	12.81	-1
44	21845	12.91	-1
44	22000	13.01	-1
44	22150	13.11	-1
44	22300	13.21	-1
44	22450	13.31	-1
44	22600	13.41	-1
44	22750	13.51	-1
44	22900	13.61	-1
44	23050	13.71	-1
44	23200	13.81	-1
44	23351	13.91	-1
44	23738	14.01	-1
44	23888	14.11	-1
44	24038	14.21	-1
44	24188	14.31	-1
44	24338	14.41	-1
44	24488	14.51	-1
44	24638	14.61	-1
44	24788	14.71	-1
44	24938	14.81	-1
44	25088	14.91	-1
44	25242	15.01	-1
44	25392	15.11	-1
44	25542	15.21	-1
44	25692	15.31	-1
44	25842	15.41	-1
44	25992	15.51	-1
44	26142	15.61	-1
44	26292	15.71	-1
44	26442	15.81	-1
44	26592	15.91	-1
44	26746	16.01	-1
44	26896	16.11	-1
44	27046	16.21	-1
44	27196	16.31	-1
44	27346	16.41	-1
44	27496	16.51	-1
44	27646	16.61	-1
44	27796	16.71	-1
44	27946	16.81	-1
44	28096	16.91	-1
44	28250	17.01	-1
44	28400	17.11	-1
44	28550	17.21	-1
44	28700	17.31	-1
44	28850	17.41	-1
44	29000	17.51	-1
44	29150	17.61	-1
44	29300	17.71	-1
44	29450	17.81	-1
44	29600	17.91	-1
44	29754	18.01	-1
44	29904	18.11	-1
44	30054	18.21	-1
44	30204	18.31	-1
44	30354	18.41	-1
44	30504	18.51	-1
44	30654	18.61	-1
44	30804	18.71	-1
44	30954	18.81	-1
44	31104	18.91	-1
44	31258	19.01	-1
44	31408	19.11	-1
44	31558	19.21	-1
44	31708	19.31	-1
44	31858	19.41	-1
44	32008	19.51	-1
44	32158	19.61	-1
44	32308	19.71	-1
44	32458	19.81	-1
44	32608	19.91	-1
44	32762	20.01	-1
44	32912	20.11	-1
44	33062	20.21	-1
44	33212	20.31	-1
44	33362	20.41	-1
44	33512	20.51	-1
44	33662	20.61	-1
44	33812	20.71	-1
44	33962	20.81	-1
44	34112	20.91	-1
44	34266	21.01	-1
44	34416	21.11	-1
44	34566	21.21	-1
44	34716	21.31	-1
44	34866	21.41	-1
44	35016	21.51	-1
44	35166	21.61	-1
44	35316	21.71	-1
44	35466	21.81	-1
44	35616	21.91	-1
44	35770	22.01	-1
44	35920	22.11	-1
44	36070	22.21	-1
44	36220	22.31	-1
44	36370	22.41	-1
44	36520	22.51	-1
44	36670	22.61	-1
44	36820	22.71	-1
44	36970	22.81	-1
44	37120	22.91	-1
44	37274	23.01	-1
44	37424	23.11	-1
44	37574	23.21	-1
44	37724	23.31	-1
44	37874	23.41	-1
44	38024	23.51	-1
44	38174	23.61	-1
44	38324	23.71	-1
44	38474	23.81	-1
44	38624	23.91	-1
44	38778	24.01	-1
44	38928	24.11	-1
44	39078	24.21	-1
44	39228	24.31	-1
44	39378	24.41	-1
44	39528	24.51	-1
44	39678	24.61	-1
44	39828	24.71	-1
44	39978	24.81	-1
44	40128	24.91	-1
44	40282	25.01	-1
44	40432	25.11	-1
44	40582	25.21	-1
44	40732	25.31	-1
44	40882	25.41	-1
44	41032	25.51	-1
44	41182	25.61	-1
44	41333	25.71	-1
44	41483	25.81	-1
44	41633	25.91	-1
44	41787	26.01	-1
44	41937	26.11	-1
44	42087	26.21	-1
44	42237	26.31	-1
44	42387	26.41	-1
44	42537	26.51	-1
44	42687	26.61	-1
44	42837	26.71	-1
44	42987	26.81	-1
44	43137	26.91	-1
44	43291	27.01	-1
44	43441	27.11	-1
44	43591	27.21	-1
44	43741	27.31	-1
44	43891	27.41	-1
44	44041	27.51	-1
44	44191	27.61	-1
44	44341	27.71	-1
44	44491	27.81	-1
44	44641	27.91	-1
44	44795	28.01	-1
44	44945	28.11	-1
44	45095	28.21	-1
44	45245	28.31	-1
44	45395	28.41	-1
44	45545	28.51	-1
44	45695	28.61	-1
44	45845	28.71	-1
44	45995	28.81	-1
44	46145	28.91	-1
44	46299	29.01	-1
44	46449	29.11	-1
44	46599	29.21	-1
44	46749	29.31	-1
44	46899	29.41	-1
44	47049	29.51	-1
44	47199	29.61	-1
44	47349	29.71	-1
44	47499	29.81	-1
44	47649	29.91	-1
44	47803	30.01	-1
44	47953	30.11	-1
44	48103	30.21	-1
44	48253	30.31	-1
44	48403	30.41	-1
44	48553	30.51	-1
44	48703	30.61	-1
44	48853	30.71	-1
44	49003	30.81	-1
44	49153	30.91	-1
44	49307	31.01	-1
46	26	0.21	3
46	176	0.31	3
46	326	0.41	3
46	476	0.51	3
46	626	0.61	3
46	776	0.71	3
46	926	0.81	3
46	1076	0.91	3
46	1230	1.01	3
46	1381	1.11	3
46	1532	1.21	3
46	1683	1.31	3
46	2046	1.41	3
46	2196	1.51	3
46	2346	1.61	3
46	2496	1.71	3
46	2646	1.81	3
46	2796	1.91	3
46	2950	2.01	3
46	3100	2.11	3
46	3250	2.21	3
46	3400	2.31	3
46	3763	2.41	3
46	3914	2.51	3
46	4064	2.61	3
46	4214	2.71	3
46	4364	2.81	3
46	4514	2.91	3
46	4668	3.01	3
46	4818	3.11	3
46	4968	3.21	3
46	5118	3.31	3
46	5269	3.41	3
46	5676	3.51	3
46	5826	3.61	3
46	5976	3.71	3
46	6126	3.81	3
46	6276	3.91	3
46	6430	4.01	3
46	6580	4.11	3
46	6730	4.21	3
46	6880	4.31	3
46	7030	4.41	3
46	7393	4.51	3
46	7544	4.61	3
46	7694	4.71	3
46	7844	4.81	3
46	7994	4.91	3
46	8148	5.01	3
46	8298	5.11	3
46	8448	5.21	3
46	8598	5.31	3
46	8748	5.41	3
46	8899	5.51	3
46	9262	5.61	3
46	9412	5.71	3
46	9562	5.81	3
46	9712	5.91	3
46	9866	6.01	3
46	10016	6.11	3
46	10166	6.21	3
46	10316	6.31	3
46	10466	6.41	3
46	10616	6.51	3
46	11023	6.61	3
46	11174	6.71	3
46	11324	6.81	3
46	11474	6.91	3
46	11628	7.01	3
46	11778	7.11	3
46	11928	7.21	3
46	12078	7.31	3
46	12228	7.41	3
46	12378	7.51	3
46	12529	7.61	3
46	12892	7.71	3
46	13042	7.81	3
46	13192	7.91	3
46	13346	8.01	3
46	13496	8.11	3
46	13646	8.21	3
46	13796	8.31	3
46	13946	8.41	3
46	14096	8.51	3
46	14246	8.61	3
46	14609	8.71	3
46	14760	8.81	3
46	14910	8.91	3
46	15064	9.01	3
46	15214	9.11	3
46	15364	9.21	3
46	15514	9.31	3
46	15664	9.41	3
46	15814	9.51	3
46	15964	9.61	3
46	16115	9.71	3
46	16522	9.81	3
46	16672	9.91	3
46	16826	10.01	3
46	16976	10.11	3
46	17126	10.21	3
46	17276	10.31	3
46	17426	10.41	3
46	17576	10.51	3
46	17726	10.61	3
46	17876	10.71	3
46	18239	10.81	3
46	18390	10.91	3
46	18544	11.01	3
46	18694	11.11	3
46	18844	11.21	3
46	18994	11.31	3
46	19144	11.41	3
46	19294	11.51	3
46	19444	11.61	3
46	19594	11.71	3
46	19745	11.81	3
46	20108	11.91	3
46	20262	12.01	3
46	20412	12.11	3
46	20562	12.21	3
46	20712	12.31	3
46	20862	12.41	3
46	21012	12.51	3
46	21162	12.61	3
46	21312	12.71	3
46	21462	12.81	3
46	21845	12.91	3
46	22000	13.01	3
46	22150	13.11	3
46	22300	13.21	3
46	22450	13.31	3
46	22600	13.41	3
46	22750	13.51	3
46	22900	13.61	3
46	23050	13.71	3
46	23200	13.81	3
46	23351	13.91	3
46	23738	14.01	3
46	23888	14.11	3
46	24038	14.21	3
46	24188	14.31	3
46	24338	14.41	3
46	24488	14.51	3
46	24638	14.61	3
46	24788	14.71	3
46	24938	14.81	3
46	25088	14.91	3
46	25242	15.01	3
46	25392	15.11	3
46	25542	15.21	3
46	25692	15.31	3
46	25842	15.41	3
46	25992	15.51	3
46	26142	15.61	3
46	26292	15.71	3
46	26442	15.81	3
46	26592	15.91	3
46	26746	16.01	3
46	26896	16.11	3
46	27046	16.21	3
46	27196	16.31	3
46	27346	16.41	3
46	27496	16.51	3
46	27646	16.61	3
46	27796	16.71	3
46	27946	16.81	3
46	28096	16.91	3
46	28250	17.01	3
46	28400	17.11	3
46	28550	17.21	3
46	28700	17.31	3
46	28850	17.41	3
46	29000	17.51	3
46	29150	17.61	3
46	29300	17.71	3
46	29450	17.81	3
46	29600	17.91	3
46	29754	18.01	3
46	29904	18.11	3
46	30054	18.21	3
46	30204	18.31	3
46	30354	18.41	3
46	30504	18.51	3
46	30654	18.61	3
46	30804	18.71	3
46	30954	18.81	3
46	31104	18.91	3
46	31258	19.01	3
46	31408	19.11	3
46	31558	19.21	3
46	31708	19.31	3
46	31858	19.41	3
46	32008	19.51	3
46	32158	19.61	3
46	32308	19.71	3
46	32458	19.81	3
46	32608	19.91	3
46	32762	20.01	3
46	32912	20.11	3
46	33062	20.21	3
46	33212	20.31	3
46	33362	20.41	3
46	33512	20.51	3
46	33662	20.61	3
46	33812	20.71	3
46	33962	20.81	3
46	34112	20.91	3
46	34266	21.01	3
46	34416	21.11	3
46	34566	21.21	3
46	34716	21.31	3
46	34866	21.41	3
46	35016	21.51	3
46	35166	21.61	3
46	35316	21.71	3
46	35466	21.81	3
46	35616	21.91	3
46	35770	22.01	3
46	35920	22.11	3
46	36070	22.21	3
46	36220	22.31	3
46	36370	22.41	3
46	36520	22.51	3
46	36670	22.61	3
46	36820	22.71	3
46	36970	22.81	3
46	37120	22.91	3
46	37274	23.01	3
46	37424	23.11	3
46	37574	23.21	3
46	37724	23.31	3
46	37874	23.41	3
46	38024	23.51	3
46	38174	23.61	3
46	38324	23.71	3
46	38474	23.81	3
46	38624	23.91	3
46	38778	24.01	3
46	38928	24.11	3
46	39078	24.21	3
46	39228	24.31	3
46	39378	24.41	3
46	39528	24.51	3
46	39678	24.61	3
46	39828	24.71	3
46	39978	24.81	3
46	40128	24.91	3
46	40282	25.01	3
46	40432	25.11	3
46	40582	25.21	3
46	40732	25.31	3
46	40882	25.41	3
46	41032	25.51	3
46	41182	25.61	3
46	41333	25.71	3
46	41483	25.81	3
46	41633	25.91	3
46	41787	26.01	3
46	41937	26.11	3
46	42087	26.21	3
46	42237	26.31	3
46	42387	26.41	3
46	42537	26.51	3
46	42687	26.61	3
46	42837	26.71	3
46	42987	26.81	3
46	43137	26.91	3
46	43291	27.01	3
46	43441	27.11	3
46	43591	27.21	3
46	43741	27.31	3
46	43891	27.41	3
46	44041	27.51	3
46	44191	27.61	3
46	44341	27.71	3
46	44491	27.81	3
46	44641	27.91	3
46	44795	28.01	3
46	44945	28.11	3
46	45095	28.21	3
46	45245	28.31	3
46	45395	28.41	3
46	45545	28.51	3
46	45695	28.61	3
46	45845	28.71	3
46	45995	28.81	3
46	46145	28.91	3
46	46299	29.01	3
46	46449	29.11	3
46	46599	29.21	3
46	46749	29.31	3
46	46899	29.41	3
46	47049	29.51	3
46	47199	29.61	3
46	47349	29.71	3
46	47499	29.81	3
46	47649	29.91	3
46	47803	30.01	3
46	47953	30.11	3
46	48103	30.21	3
46	48253	30.31	3
46	48403	30.41	3
46	48553	30.51	3
46	48703	30.61	3
46	48853	30.71	3
46	49003	30.81	3
46	49153	30.91	3
46	49307	31.01	3
67	1191	1	0
67	2911	2	0
67	4629	3	0
67	6391	4	0
67	8109	5	0
67	9827	6	0
67	11589	7	0
67	13307	8	0
67	15025	9	0
67	16787	10	0
67	18505	11	0
67	20223	12	0
67	21961	13	0
67	23699	14	0
67	25203	15	0
67	26707	16	0
67	28211	17	0
67	29715	18	0
67	31219	19	0
67	32723	20	0
67	34227	21	0
67	35731	22	0
67	37235	23	0
67	38739	24	0
67	40243	25	0
67	41748	26	0
67	43252	27	0
67	44756	28	0
67	46260	29	0
67	47764	30	0
67	49268	31	0
66	1191	1	0.009679
66	2911	2	0.013005653422
66	4629	3	0.013005394678
66	6391	4	0.013053153084
66	8109	5	0.013004916702
66	9827	6	0.013004682152
66	11589	7	0.01314744939
66	13307	8	0.0130042187
66	15025	9	0.013003990068
66	16787	10	0.013146763326
66	18505	11	0.013003538302
66	20223	12	0.013003314942
66	21961	13	0.013003094342
66	23699	14	0.013003130976
66	25203	15	0.01249
66	26707	16	0.01249
66	28211	17	0.01249
66	29715	18	0.01249
66	31219	19	0.01249
66	32723	20	0.01249
66	34227	21	0.01249
66	35731	22	0.01249
66	37235	23	0.01249
66	38739	24	0.01249
66	40243	25	0.01249
66	41748	26	0.01249
66	43252	27	0.01249
66	44756	28	0.01249
66	46260	29	0.01249
66	47764	30	0.01249
66	49268	31	0.01249
65	1191	1	3
65	2911	2	3
65	4629	3	3
65	6391	4	3
65	8109	5	3
65	9827	6	3
65	11589	7	3
65	13307	8	3
65	15025	9	3
65	16787	10	3
65	18505	11	3
65	20223	12	3
65	21961	13	3
65	23699	14	3
65	25203	15	3
65	26707	16	3
65	28211	17	3
65	29715	18	3
65	31219	19	3
65	32723	20	3
65	34227	21	3
65	35731	22	3
65	37235	23	3
65	38739	24	3
65	40243	25	3
65	41748	26	3
65	43252	27	3
65	44756	28	3
65	46260	29	3
65	47764	30	3
65	49268	31	3
19	15	0.13	2.2735541365544
19	16	0.14	2.2736346528447
19	17	0.15	2.2737135679964
19	18	0.16	2.2737908979323
19	19	0.17	2.2738666585762
19	20	0.18	2.2739408658454
19	21	0.19	2.2740135356516
19	22	0.2	2.2740846838929
19	27	0.21	2.2741543264562
19	62	0.22	2.274222479211
19	97	0.23	2.2742891580082
19	98	0.24	2.2743543786761
19	99	0.25	2.2744181570189
19	134	0.26	2.2744805088141
19	135	0.27	2.274541449808
19	136	0.28	2.274600995716
19	137	0.29	2.2746591622183
19	138	0.3	2.2747159649574
19	177	0.31	2.2747714195377
19	212	0.32	2.2748255415216
19	247	0.33	2.2748783464266
19	248	0.34	2.2749298497256
19	249	0.35	2.2749800668409
19	284	0.36	2.2750290131473
19	285	0.37	2.2750767039664
19	286	0.38	2.2751231545639
19	287	0.39	2.2751683801509
19	288	0.4	2.2752123958784
19	327	0.41	2.2752552168403
19	362	0.42	2.2752968580672
19	397	0.43	2.2753373345271
19	398	0.44	2.2753766611209
19	399	0.45	2.2754148526852
19	434	0.46	2.2754519239865
19	435	0.47	2.2754878897219
19	436	0.48	2.2755227645167
19	437	0.49	2.2755565629239
19	438	0.5	2.2755892994224
19	477	0.51	2.2756209884141
19	512	0.52	2.275651644224
19	547	0.53	2.2756812811003
19	548	0.54	2.2757099132103
19	549	0.55	2.2757375546413
19	584	0.56	2.2757642193982
19	585	0.57	2.2757899214021
19	586	0.58	2.2758146744916
19	587	0.59	2.2758384924183
19	588	0.6	2.2758613888474
19	627	0.61	2.2758833773587
19	662	0.62	2.2759044714408
19	697	0.63	2.2759246844958
19	698	0.64	2.2759440298361
19	699	0.65	2.2759625206803
19	734	0.66	2.2759801701573
19	735	0.67	2.2759969913037
19	736	0.68	2.2760129970623
19	737	0.69	2.2760282002817
19	738	0.7	2.2760426137156
19	777	0.71	2.276056250025
19	812	0.72	2.2760691217714
19	847	0.73	2.2760812414222
19	848	0.74	2.2760926213482
19	849	0.75	2.2761032738206
19	884	0.76	2.2761132110151
19	885	0.77	2.2761224450063
19	886	0.78	2.2761309877721
19	887	0.79	2.2761388511892
19	888	0.8	2.2761460470359
19	927	0.81	2.2761525869908
19	962	0.82	2.2761584826314
19	997	0.83	2.276163745434
19	998	0.84	2.2761683867749
19	999	0.85	2.2761724179292
19	1034	0.86	2.2761758500694
19	1035	0.87	2.2761786942667
19	1036	0.88	2.2761809614921
19	1037	0.89	2.2761826626141
19	1038	0.9	2.2761838083969
19	1077	0.91	2.2761844095045
19	1112	0.92	2.2761844764996
19	1147	0.93	2.2761840198391
19	1148	0.94	2.2761830498813
19	1149	0.95	2.2761815768799
19	1184	0.96	2.2761796109858
19	1185	0.97	2.2761771622495
19	1186	0.98	2.2761742406172
19	1187	0.99	2.2761708559346
19	1192	1	2.276167017943
19	1231	1.01	2.2761627362832
19	1266	1.02	2.2761580204929
19	1301	1.03	2.2761528800094
19	1302	1.04	2.2761473241679
19	1303	1.05	2.2761413622004
19	1338	1.06	2.2761350032384
19	1339	1.07	2.2761282563128
19	1340	1.08	2.2761211303525
19	1341	1.09	2.276113634187
19	1342	1.1	2.2761057765437
19	1382	1.11	2.2760975660509
19	1417	1.12	2.2760890112373
19	1452	1.13	2.276080120531
19	1453	1.14	2.2760709022603
19	1454	1.15	2.2760613646545
19	1489	1.16	2.2760515158458
19	1490	1.17	2.2760413638669
19	1491	1.18	2.2760309166511
19	1492	1.19	2.2760201820362
19	1493	1.2	2.276009167763
19	1533	1.21	2.2759978814727
19	1568	1.22	2.2759863307123
19	1603	1.23	2.2759745229306
19	1604	1.24	2.2759624654833
19	1605	1.25	2.2759501656292
19	1640	1.26	2.2759376305329
19	1641	1.27	2.2759248672645
19	1642	1.28	2.2759118827999
19	1643	1.29	2.2758986840218
19	1644	1.3	2.2758852777213
19	1684	1.31	2.2758716705939
19	1931	1.32	2.2758578692458
19	1966	1.33	2.2758438801916
19	1967	1.34	2.2758297098542
19	1968	1.35	2.275815364566
19	2004	1.36	2.2758008505703
19	2005	1.37	2.2757861740213
19	2006	1.38	2.2757713409827
19	2007	1.39	2.2757563574319
19	2008	1.4	2.2757412292568
19	2047	1.41	2.2757259622607
19	2082	1.42	2.2757105621571
19	2117	1.43	2.2756950345763
19	2118	1.44	2.2756793850629
19	2119	1.45	2.2756636190754
19	2154	1.46	2.2756477419883
19	2155	1.47	2.2756317590933
19	2156	1.48	2.2756156755988
19	2157	1.49	2.2755994966315
19	2158	1.5	2.2755832272345
19	2197	1.51	2.2755668723709
19	2232	1.52	2.2755504369241
19	2267	1.53	2.275533925696
19	2268	1.54	2.2755173434101
19	2269	1.55	2.2755006947102
19	2304	1.56	2.2754839841638
19	2305	1.57	2.2754672162601
19	2306	1.58	2.2754503954111
19	2307	1.59	2.2754335259528
19	2308	1.6	2.2754166121466
19	2347	1.61	2.2753996581767
19	2382	1.62	2.2753826681569
19	2417	1.63	2.2753656461247
19	2418	1.64	2.2753485960448
19	2419	1.65	2.275331521811
19	2454	1.66	2.275314427244
19	2455	1.67	2.2752973160952
19	2456	1.68	2.2752801920443
19	2457	1.69	2.2752630587014
19	2458	1.7	2.275245919609
19	2497	1.71	2.2752287782388
19	2532	1.72	2.2752116379988
19	2567	1.73	2.2751945022263
19	2568	1.74	2.2751773741934
19	2569	1.75	2.275160257107
19	2604	1.76	2.2751431541088
19	2605	1.77	2.2751260682764
19	2606	1.78	2.2751090026224
19	2607	1.79	2.2750919600981
19	2608	1.8	2.2750749435922
19	2647	1.81	2.275057955931
19	2682	1.82	2.275040999878
19	2717	1.83	2.2750240781397
19	2718	1.84	2.2750071933614
19	2719	1.85	2.2749903481283
19	2754	1.86	2.2749735449687
19	2755	1.87	2.2749567863521
19	2756	1.88	2.2749400746911
19	2757	1.89	2.2749234123421
19	2758	1.9	2.2749068016059
19	2797	1.91	2.2748902447262
19	2832	1.92	2.2748737438945
19	2867	1.93	2.2748573012467
19	2868	1.94	2.2748409188656
19	2869	1.95	2.2748245987821
19	2904	1.96	2.2748083429752
19	2905	1.97	2.2747921533723
19	2906	1.98	2.2747760318486
19	2907	1.99	2.2747599802306
19	2912	2	2.2747440002955
19	2951	2.01	2.2747280937712
19	2986	2.02	2.2747122623368
19	3021	2.03	2.2746965076247
19	3022	2.04	2.2746808312197
19	3023	2.05	2.27466523466
19	3058	2.06	2.2746497194375
19	3059	2.07	2.2746342870002
19	3060	2.08	2.2746189387514
19	3061	2.09	2.2746036760501
19	3062	2.1	2.2745885002107
19	3101	2.11	2.2745734125064
19	3136	2.12	2.2745584141664
19	3171	2.13	2.2745435063806
19	3172	2.14	2.2745286902963
19	3173	2.15	2.2745139670199
19	3208	2.16	2.2744993376193
19	3209	2.17	2.2744848031214
19	3210	2.18	2.2744703645162
19	3211	2.19	2.2744560227553
19	3212	2.2	2.2744417787507
19	3251	2.21	2.2744276333785
19	3286	2.22	2.2744135874795
19	3321	2.23	2.2743996418573
19	3322	2.24	2.2743857972786
19	3323	2.25	2.2743720544785
19	3358	2.26	2.274358414155
19	3359	2.27	2.2743448769748
19	3360	2.28	2.2743314435687
19	3361	2.29	2.2743181145361
19	3362	2.3	2.2743048904446
19	3401	2.31	2.2742917718291
19	3436	2.32	2.2742787591943
19	3471	2.33	2.274265853013
19	3472	2.34	2.2742530537281
19	3473	2.35	2.2742403617548
19	3509	2.36	2.274227777477
19	3722	2.37	2.2742153012493
19	3723	2.38	2.2742029334019
19	3724	2.39	2.2741906742332
19	3725	2.4	2.2741785240155
19	3765	2.41	2.2741664829963
19	3800	2.42	2.2741545513956
19	3835	2.43	2.2741427294059
19	3836	2.44	2.2741310171975
19	3837	2.45	2.2741194149147
19	3872	2.46	2.2741079226756
19	3873	2.47	2.2740965405775
19	3874	2.48	2.2740852686916
19	3875	2.49	2.2740741070671
19	3876	2.5	2.274063055731
19	3915	2.51	2.2740521146867
19	3950	2.52	2.2740412839187
19	3985	2.53	2.2740305633876
19	3986	2.54	2.2740199530335
19	3987	2.55	2.2740094527771
19	4022	2.56	2.2739990625183
19	4023	2.57	2.2739887821392
19	4024	2.58	2.2739786114995
19	4025	2.59	2.2739685504411
19	4026	2.6	2.2739585987894
19	4065	2.61	2.27394875635
19	4100	2.62	2.2739390229122
19	4135	2.63	2.273929398246
19	4136	2.64	2.2739198821071
19	4137	2.65	2.2739104742321
19	4172	2.66	2.2739011743437
19	4173	2.67	2.2738919821493
19	4174	2.68	2.2738828973381
19	4175	2.69	2.2738739195856
19	4176	2.7	2.2738650485547
19	4215	2.71	2.2738562838902
19	4250	2.72	2.2738476252271
19	4285	2.73	2.2738390721824
19	4286	2.74	2.2738306243648
19	4287	2.75	2.273822281366
19	4322	2.76	2.2738140427669
19	4323	2.77	2.2738059081355
19	4324	2.78	2.2737978770288
19	4325	2.79	2.2737899489912
19	4326	2.8	2.2737821235573
19	4365	2.81	2.2737744002491
19	4400	2.82	2.2737667785789
19	4435	2.83	2.2737592580475
19	4436	2.84	2.2737518381461
19	4437	2.85	2.2737445183575
19	4472	2.86	2.2737372981532
19	4473	2.87	2.2737301769976
19	4474	2.88	2.2737231543439
19	4475	2.89	2.2737162296383
19	4476	2.9	2.2737094023171
19	4515	2.91	2.2737026718094
19	4550	2.92	2.2736960375374
19	4585	2.93	2.2736894989147
19	4586	2.94	2.273683055348
19	4587	2.95	2.2736767062381
19	4622	2.96	2.2736704509759
19	4623	2.97	2.2736642889495
19	4624	2.98	2.2736582195371
19	4625	2.99	2.2736522421139
19	4630	3	2.2736463560481
19	4669	3.01	2.2736405607033
19	4704	3.02	2.2736348554363
19	4739	3.03	2.2736292395993
19	4740	3.04	2.2736237125404
19	4741	3.05	2.2736182736032
19	4776	3.06	2.2736129221255
19	4777	3.07	2.2736076574408
19	4778	3.08	2.2736024788811
19	4779	3.09	2.2735973857726
19	4780	3.1	2.2735923774386
19	4819	3.11	2.2735874531978
19	4854	3.12	2.273582612369
19	4889	3.13	2.2735778542635
19	4890	3.14	2.2735731781943
19	4891	3.15	2.273568583468
19	4926	3.16	2.2735640693916
19	4927	3.17	2.2735596352687
19	4928	3.18	2.2735552804014
19	4929	3.19	2.273551004089
19	4930	3.2	2.2735468056302
19	4969	3.21	2.2735426843212
19	5004	3.22	2.2735386394575
19	5039	3.23	2.2735346703332
19	5040	3.24	2.273530776241
19	5041	3.25	2.2735269564744
19	5076	3.26	2.273523210324
19	5077	3.27	2.2735195370818
19	5078	3.28	2.2735159360379
19	5079	3.29	2.2735124064824
19	5080	3.3	2.2735089477063
19	5119	3.31	2.2735055590005
19	5154	3.32	2.2735022396544
19	5189	3.33	2.2734989889598
19	5190	3.34	2.273495806207
19	5191	3.35	2.2734926906886
19	5226	3.36	2.2734896416959
19	5227	3.37	2.273486658524
19	5228	3.38	2.2734837404662
19	5229	3.39	2.2734808868187
19	5230	3.4	2.2734780968771
19	5270	3.41	2.2734753699399
19	5561	3.42	2.2734727053064
19	5596	3.43	2.2734701022773
19	5597	3.44	2.2734675601557
19	5598	3.45	2.2734650782446
19	5634	3.46	2.2734626558509
19	5635	3.47	2.2734602922826
19	5636	3.48	2.2734579868502
19	5637	3.49	2.2734557388654
19	5638	3.5	2.2734535476412
19	5677	3.51	2.2734514124957
19	5712	3.52	2.2734493327483
19	5747	3.53	2.2734473077194
19	5748	3.54	2.2734453367335
19	5749	3.55	2.2734434191176
19	5784	3.56	2.2734415542012
19	5785	3.57	2.2734397413177
19	5786	3.58	2.2734379798004
19	5787	3.59	2.2734362689893
19	5788	3.6	2.273434608224
19	5827	3.61	2.2734329968495
19	5862	3.62	2.2734314342135
19	5897	3.63	2.2734299196674
19	5898	3.64	2.273428452564
19	5899	3.65	2.2734270322612
19	5934	3.66	2.2734256581196
19	5935	3.67	2.2734243295037
19	5936	3.68	2.273423045782
19	5937	3.69	2.2734218063253
19	5938	3.7	2.2734206105088
19	5977	3.71	2.2734194577111
19	6012	3.72	2.2734183473139
19	6047	3.73	2.2734172787051
19	6048	3.74	2.2734162512742
19	6049	3.75	2.2734152644144
19	6084	3.76	2.2734143175258
19	6085	3.77	2.273413410008
19	6086	3.78	2.273412541269
19	6087	3.79	2.2734117107179
19	6088	3.8	2.2734109177677
19	6127	3.81	2.2734101618381
19	6162	3.82	2.2734094423501
19	6197	3.83	2.2734087587314
19	6198	3.84	2.2734081104121
19	6199	3.85	2.2734074968278
19	6234	3.86	2.2734069174182
19	6235	3.87	2.2734063716252
19	6236	3.88	2.2734058588978
19	6237	3.89	2.2734053786874
19	6238	3.9	2.2734049304507
19	6277	3.91	2.27340451365
19	6312	3.92	2.2734041277484
19	6347	3.93	2.2734037722176
19	6348	3.94	2.2734034465314
19	6349	3.95	2.2734031501679
19	6384	3.96	2.2734028826106
19	6385	3.97	2.2734026433466
19	6386	3.98	2.2734024318688
19	6387	3.99	2.2734022476738
19	6392	4	2.2734020902623
19	6431	4.01	2.2734019591404
19	6466	4.02	2.2734018538179
19	6501	4.03	2.273401773809
19	6502	4.04	2.2734017186343
19	6503	4.05	2.2734016878172
19	6538	4.06	2.2734016808865
19	6539	4.07	2.2734016973748
19	6540	4.08	2.2734017368189
19	6541	4.09	2.2734017987622
19	6542	4.1	2.2734018827507
19	6581	4.11	2.2734019883361
19	6616	4.12	2.273402115075
19	6651	4.13	2.2734022625255
19	6652	4.14	2.273402430254
19	6653	4.15	2.2734026178305
19	6688	4.16	2.2734028248279
19	6689	4.17	2.2734030508259
19	6690	4.18	2.2734032954066
19	6691	4.19	2.2734035581591
19	6692	4.2	2.2734038386736
19	6731	4.21	2.2734041365485
19	6766	4.22	2.2734044513849
19	6801	4.23	2.2734047827878
19	6802	4.24	2.2734051303677
19	6803	4.25	2.273405493739
19	6838	4.26	2.2734058725202
19	6839	4.27	2.2734062663352
19	6840	4.28	2.2734066748134
19	6841	4.29	2.2734070975851
19	6842	4.3	2.2734075342892
19	6881	4.31	2.2734079845657
19	6916	4.32	2.2734084480599
19	6951	4.33	2.2734089244226
19	6952	4.34	2.2734094133072
19	6953	4.35	2.2734099143727
19	6988	4.36	2.2734104272819
19	6989	4.37	2.2734109517031
19	6990	4.38	2.2734114873059
19	6991	4.39	2.2734120337667
19	6992	4.4	2.2734125907659
19	7031	4.41	2.2734131579879
19	7066	4.42	2.2734137351213
19	7101	4.43	2.2734143218572
19	7102	4.44	2.2734149178935
19	7103	4.45	2.2734155229296
19	7139	4.46	2.2734161366714
19	7352	4.47	2.2734167588277
19	7353	4.48	2.2734173891112
19	7354	4.49	2.2734180272402
19	7355	4.5	2.2734186729342
19	7395	4.51	2.2734193259194
19	7430	4.52	2.2734199859234
19	7465	4.53	2.2734206526807
19	7466	4.54	2.273421325927
19	7467	4.55	2.2734220054033
19	7502	4.56	2.273422690855
19	7503	4.57	2.2734233820299
19	7504	4.58	2.2734240786799
19	7505	4.59	2.2734247805625
19	7506	4.6	2.2734254874362
19	7545	4.61	2.273426199064
19	7580	4.62	2.273426915214
19	7615	4.63	2.273427635657
19	7616	4.64	2.2734283601681
19	7617	4.65	2.2734290885248
19	7652	4.66	2.273429820509
19	7653	4.67	2.2734305559063
19	7654	4.68	2.2734312945053
19	7655	4.69	2.2734320360986
19	7656	4.7	2.2734327804813
19	7695	4.71	2.2734335274543
19	7730	4.72	2.2734342768194
19	7765	4.73	2.2734350283829
19	7766	4.74	2.2734357819536
19	7767	4.75	2.2734365373456
19	7802	4.76	2.2734372943746
19	7803	4.77	2.2734380528589
19	7804	4.78	2.2734388126222
19	7805	4.79	2.273439573491
19	7806	4.8	2.2734403352945
19	7845	4.81	2.2734410978644
19	7880	4.82	2.2734418610355
19	7915	4.83	2.2734426246477
19	7916	4.84	2.2734433885424
19	7917	4.85	2.2734441525638
19	7952	4.86	2.2734449165585
19	7953	4.87	2.273445680379
19	7954	4.88	2.2734464438787
19	7955	4.89	2.273447206914
19	7956	4.9	2.2734479693439
19	7995	4.91	2.2734487310316
19	8030	4.92	2.2734494918416
19	8065	4.93	2.2734502516423
19	8066	4.94	2.2734510103038
19	8067	4.95	2.2734517676999
19	8102	4.96	2.2734525237075
19	8103	4.97	2.273453278206
19	8104	4.98	2.2734540310762
19	8105	4.99	2.2734547822029
19	8110	5	2.2734555314725
19	8149	5.01	2.2734562787738
19	8184	5.02	2.273457024
19	8219	5.03	2.2734577670454
19	8220	5.04	2.2734585078072
19	8221	5.05	2.2734592461853
19	8256	5.06	2.2734599820809
19	8257	5.07	2.2734607153992
19	8258	5.08	2.2734614460457
19	8259	5.09	2.2734621739298
19	8260	5.1	2.2734628989635
19	8299	5.11	2.2734636210603
19	8334	5.12	2.2734643401365
19	8369	5.13	2.2734650561111
19	8370	5.14	2.273465768903
19	8371	5.15	2.2734664784353
19	8406	5.16	2.2734671846323
19	8407	5.17	2.2734678874225
19	8408	5.18	2.2734685867332
19	8409	5.19	2.2734692824969
19	8410	5.2	2.2734699746462
19	8449	5.21	2.2734706631151
19	8484	5.22	2.2734713478431
19	8519	5.23	2.2734720287667
19	8520	5.24	2.2734727058283
19	8521	5.25	2.2734733789714
19	8556	5.26	2.2734740481408
19	8557	5.27	2.2734747132814
19	8558	5.28	2.2734753743437
19	8559	5.29	2.273476031278
19	8560	5.3	2.2734766840347
19	8599	5.31	2.2734773325697
19	8634	5.32	2.2734779768373
19	8669	5.33	2.273478616795
19	8670	5.34	2.2734792524025
19	8671	5.35	2.2734798836199
19	8706	5.36	2.2734805104099
19	8707	5.37	2.2734811327365
19	8708	5.38	2.2734817505652
19	8709	5.39	2.2734823638628
19	8710	5.4	2.2734829725975
19	8749	5.41	2.2734835767402
19	8784	5.42	2.2734841762618
19	8819	5.43	2.2734847711346
19	8820	5.44	2.2734853613351
19	8821	5.45	2.2734859468383
19	8856	5.46	2.2734865276206
19	8857	5.47	2.2734871036626
19	8858	5.48	2.2734876749419
19	8859	5.49	2.273488241442
19	8860	5.5	2.2734888031447
19	8900	5.51	2.2734893600333
19	9147	5.52	2.2734899120939
19	9182	5.53	2.2734904593124
19	9183	5.54	2.2734910016777
19	9184	5.55	2.2734915391772
19	9220	5.56	2.273492071801
19	9221	5.57	2.2734925995407
19	9222	5.58	2.2734931223878
19	9223	5.59	2.2734936403366
19	9224	5.6	2.2734941533814
19	9263	5.61	2.2734946615179
19	9298	5.62	2.2734951647431
19	9333	5.63	2.2734956630541
19	9334	5.64	2.2734961564493
19	9335	5.65	2.2734966449285
19	9370	5.66	2.273497128493
19	9371	5.67	2.2734976071424
19	9372	5.68	2.2734980808809
19	9373	5.69	2.2734985497122
19	9374	5.7	2.2734990136391
19	9413	5.71	2.2734994726682
19	9448	5.72	2.2734999268048
19	9483	5.73	2.2735003760557
19	9484	5.74	2.273500820429
19	9485	5.75	2.2735012599328
19	9520	5.76	2.2735016945766
19	9521	5.77	2.2735021243712
19	9522	5.78	2.2735025493262
19	9523	5.79	2.2735029694538
19	9524	5.8	2.2735033847662
19	9563	5.81	2.2735037952772
19	9598	5.82	2.273504200999
19	9633	5.83	2.2735046019466
19	9634	5.84	2.273504998135
19	9635	5.85	2.2735053895794
19	9670	5.86	2.2735057762975
19	9671	5.87	2.2735061583044
19	9672	5.88	2.2735065356179
19	9673	5.89	2.2735069082573
19	9674	5.9	2.2735072762403
19	9713	5.91	2.2735076395861
19	9748	5.92	2.2735079983141
19	9783	5.93	2.2735083524448
19	9784	5.94	2.2735087019988
19	9785	5.95	2.2735090469982
19	9820	5.96	2.2735093874636
19	9821	5.97	2.2735097234169
19	9822	5.98	2.2735100548817
19	9823	5.99	2.2735103818799
19	9828	6	2.273510704435
19	9867	6.01	2.2735110225718
19	9902	6.02	2.2735113363151
19	9937	6.03	2.2735116456883
19	9938	6.04	2.2735119507163
19	9939	6.05	2.2735122514254
19	9974	6.06	2.2735125478402
19	9975	6.07	2.2735128399872
19	9976	6.08	2.2735131278939
19	9977	6.09	2.2735134115853
19	9978	6.1	2.2735136910902
19	10017	6.11	2.2735139664351
19	10052	6.12	2.2735142376461
19	10087	6.13	2.2735145047524
19	10088	6.14	2.273514767783
19	10089	6.15	2.2735150267655
19	10124	6.16	2.2735152817278
19	10125	6.17	2.2735155326988
19	10126	6.18	2.2735157797091
19	10127	6.19	2.2735160227864
19	10128	6.2	2.2735162619612
19	10167	6.21	2.2735164972612
19	10202	6.22	2.2735167287183
19	10237	6.23	2.2735169563616
19	10238	6.24	2.2735171802218
19	10239	6.25	2.2735174003279
19	10274	6.26	2.273517616712
19	10275	6.27	2.2735178294031
19	10276	6.28	2.2735180384333
19	10277	6.29	2.273518243833
19	10278	6.3	2.273518445633
19	10317	6.31	2.2735186438638
19	10352	6.32	2.2735188385574
19	10387	6.33	2.2735190297445
19	10388	6.34	2.2735192174556
19	10389	6.35	2.2735194017228
19	10424	6.36	2.2735195825782
19	10425	6.37	2.2735197600523
19	10426	6.38	2.2735199341759
19	10427	6.39	2.2735201049823
19	10428	6.4	2.2735202725024
19	10467	6.41	2.2735204367668
19	10502	6.42	2.273520597809
19	10537	6.43	2.2735207556596
19	10538	6.44	2.2735209103495
19	10539	6.45	2.2735210619107
19	10574	6.46	2.2735212103755
19	10575	6.47	2.2735213557758
19	10576	6.48	2.2735214981426
19	10577	6.49	2.2735216375066
19	10578	6.5	2.2735217738999
19	10617	6.51	2.2735219073548
19	10652	6.52	2.273522037902
19	10687	6.53	2.2735221655738
19	10688	6.54	2.2735222904011
19	10689	6.55	2.2735224124146
19	10725	6.56	2.2735225316451
19	10982	6.57	2.2735226481251
19	10983	6.58	2.2735227618852
[...]
2	65524	55.23	931.55726268403
2	65525	55.24	931.69615168374
2	65526	55.25	931.83504068346
2	65545	55.26	931.97392968317
2	65546	55.27	932.11281868289
2	65547	55.28	932.2517076826
2	65548	55.29	932.39059668231
2	65549	55.3	932.52948568203
2	65552	55.31	932.66837468175
2	65553	55.32	932.80726368146
2	65572	55.33	932.94615268118
2	65573	55.34	933.0850416809
2	65574	55.35	933.22393068061
2	65593	55.36	933.36281968033
2	65594	55.37	933.50170868005
2	65595	55.38	933.64059767977
2	65596	55.39	933.77948667949
2	65597	55.4	933.91837567921
2	65600	55.41	934.05726467893
2	65601	55.42	934.19615367865
2	65620	55.43	934.33504267837
2	65621	55.44	934.47393167809
2	65622	55.45	934.61282067782
2	65641	55.46	934.75170967754
2	65642	55.47	934.89059867726
2	65643	55.48	935.02948767698
2	65644	55.49	935.16837667671
2	65645	55.5	935.30726567643
2	65648	55.51	935.44615467616
2	65649	55.52	935.58504367588
2	65668	55.53	935.72393267561
2	65669	55.54	935.86282167533
2	65670	55.55	936.00171067506
2	65689	55.56	936.14059967479
2	65690	55.57	936.27948867451
2	65691	55.58	936.41837767424
2	65692	55.59	936.55726667397
2	65693	55.6	936.6961556737
2	65696	55.61	936.83504467343
2	65697	55.62	936.97393367316
2	65716	55.63	937.11282267289
2	65717	55.64	937.25171167262
2	65718	55.65	937.39060067235
2	65737	55.66	937.52948967208
2	65738	55.67	937.66837867181
2	65739	55.68	937.80726767154
2	65740	55.69	937.94615667127
2	65741	55.7	938.08504567101
2	65744	55.71	938.22393467074
2	65745	55.72	938.36282367047
2	65764	55.73	938.50171267021
2	65765	55.74	938.64060166994
2	65766	55.75	938.77949066968
2	65785	55.76	938.91837966941
2	65786	55.77	939.05726866915
2	65787	55.78	939.19615766888
2	65788	55.79	939.33504666862
2	65789	55.8	939.47393566836
2	65792	55.81	939.61282466809
2	65793	55.82	939.75171366783
2	65812	55.83	939.89060266757
2	65813	55.84	940.02949166731
2	65814	55.85	940.16838066705
2	65833	55.86	940.30726966679
2	65834	55.87	940.44615866653
2	65835	55.88	940.58504766627
2	65836	55.89	940.72393666601
2	65837	55.9	940.86282566575
2	65840	55.91	941.00171466549
2	65841	55.92	941.14060366523
2	65860	55.93	941.27949266497
2	65861	55.94	941.41838166472
2	65862	55.95	941.55727066446
2	65881	55.96	941.6961596642
2	65882	55.97	941.83504866395
2	65883	55.98	941.97393766369
2	65884	55.99	942.11282666343
2	65887	56	942.25171566318
2	65890	56.01	942.39060466292
2	65891	56.02	942.52949366267
2	65910	56.03	942.66838266242
2	65911	56.04	942.80727166216
2	65912	56.05	942.94616066191
2	65931	56.06	943.08504966166
2	65932	56.07	943.2239386614
2	65933	56.08	943.36282766115
2	65934	56.09	943.5017166609
2	65935	56.1	943.64060566065
2	65938	56.11	943.7794946604
2	65939	56.12	943.91838366015
2	65958	56.13	944.0572726599
2	65959	56.14	944.19616165965
2	65960	56.15	944.3350506594
2	65979	56.16	944.47393965915
2	65980	56.17	944.6128286589
2	65981	56.18	944.75171765866
2	65982	56.19	944.89060665841
2	65983	56.2	945.02949565816
2	65986	56.21	945.16838465791
2	65987	56.22	945.30727365767
2	66006	56.23	945.44616265742
2	66007	56.24	945.58505165718
2	66008	56.25	945.72394065693
2	66027	56.26	945.86282965669
2	66028	56.27	946.00171865644
2	66029	56.28	946.1406076562
2	66030	56.29	946.27949665595
2	66031	56.3	946.41838565571
2	66034	56.31	946.55727465547
2	66035	56.32	946.69616365522
2	66054	56.33	946.83505265498
2	66055	56.34	946.97394165474
2	66056	56.35	947.1128306545
2	66075	56.36	947.25171965426
2	66076	56.37	947.39060865402
2	66077	56.38	947.52949765378
2	66078	56.39	947.66838665354
2	66079	56.4	947.8072756533
2	66082	56.41	947.94616465306
2	66083	56.42	948.08505365282
2	66102	56.43	948.22394265258
2	66103	56.44	948.36283165234
2	66104	56.45	948.5017206521
2	66123	56.46	948.64060965187
2	66124	56.47	948.77949865163
2	66125	56.48	948.91838765139
2	66126	56.49	949.05727665116
2	66127	56.5	949.19616565092
2	66130	56.51	949.33505465069
2	66131	56.52	949.47394365045
2	66150	56.53	949.61283265022
2	66151	56.54	949.75172164998
2	66152	56.55	949.89061064975
2	66171	56.56	950.02949964951
2	66172	56.57	950.16838864928
2	66173	56.58	950.30727764905
2	66174	56.59	950.44616664881
2	66175	56.6	950.58505564858
2	66178	56.61	950.72394464835
2	66179	56.62	950.86283364812
2	66198	56.63	951.00172264789
2	66199	56.64	951.14061164766
2	66200	56.65	951.27950064743
2	66219	56.66	951.4183896472
2	66220	56.67	951.55727864697
2	66221	56.68	951.69616764674
2	66222	56.69	951.83505664651
2	66223	56.7	951.97394564628
2	66226	56.71	952.11283464605
2	66227	56.72	952.25172364582
2	66246	56.73	952.3906126456
2	66247	56.74	952.52950164537
2	66248	56.75	952.66839064514
2	66267	56.76	952.80727964491
2	66268	56.77	952.94616864469
2	66269	56.78	953.08505764446
2	66270	56.79	953.22394664424
2	66271	56.8	953.36283564401
2	66274	56.81	953.50172464379
2	66275	56.82	953.64061364356
2	66294	56.83	953.77950264334
2	66295	56.84	953.91839164312
2	66296	56.85	954.05728064289
2	66315	56.86	954.19616964267
2	66316	56.87	954.33505864245
2	66317	56.88	954.47394764222
2	66318	56.89	954.612836642
2	66319	56.9	954.75172564178
2	66322	56.91	954.89061464156
2	66323	56.92	955.02950364134
2	66342	56.93	955.16839264112
2	66343	56.94	955.3072816409
2	66344	56.95	955.44617064068
2	66363	56.96	955.58505964046
2	66364	56.97	955.72394864024
2	66365	56.98	955.86283764002
2	66366	56.99	956.0017266398
2	66369	57	956.14061563958
2	66372	57.01	956.27950463937
2	66373	57.02	956.41839363915
2	66392	57.03	956.55728263893
2	66393	57.04	956.69617163871
2	66394	57.05	956.8350606385
2	66413	57.06	956.97394963828
2	66414	57.07	957.11283863806
2	66415	57.08	957.25172763785
2	66416	57.09	957.39061663763
2	66417	57.1	957.52950563742
2	66420	57.11	957.66839463721
2	66421	57.12	957.80728363699
2	66440	57.13	957.94617263678
2	66441	57.14	958.08506163656
2	66442	57.15	958.22395063635
2	66461	57.16	958.36283963614
2	66462	57.17	958.50172863593
2	66463	57.18	958.64061763571
2	66464	57.19	958.7795066355
2	66465	57.2	958.91839563529
2	66468	57.21	959.05728463508
2	66469	57.22	959.19617363487
2	66488	57.23	959.33506263466
2	66489	57.24	959.47395163445
2	66490	57.25	959.61284063424
2	66509	57.26	959.75172963403
2	66510	57.27	959.89061863382
2	66511	57.28	960.02950763361
2	66512	57.29	960.1683966334
2	66513	57.3	960.30728563319
2	66516	57.31	960.44617463299
2	66517	57.32	960.58506363278
2	66536	57.33	960.72395263257
2	66537	57.34	960.86284163236
2	66538	57.35	961.00173063216
2	66557	57.36	961.14061963195
2	66558	57.37	961.27950863174
2	66559	57.38	961.41839763154
2	66560	57.39	961.55728663133
2	66561	57.4	961.69617563113
2	66564	57.41	961.83506463092
2	66565	57.42	961.97395363072
2	66584	57.43	962.11284263052
2	66585	57.44	962.25173163031
2	66586	57.45	962.39062063011
2	66605	57.46	962.52950962991
2	66606	57.47	962.6683986297
2	66607	57.48	962.8072876295
2	66608	57.49	962.9461766293
2	66609	57.5	963.0850656291
2	66612	57.51	963.22395462889
2	66613	57.52	963.36284362869
2	66632	57.53	963.50173262849
2	66633	57.54	963.64062162829
2	66634	57.55	963.77951062809
2	66653	57.56	963.91839962789
2	66654	57.57	964.05728862769
2	66655	57.58	964.19617762749
2	66656	57.59	964.33506662729
2	66657	57.6	964.4739556271
2	66660	57.61	964.6128446269
2	66661	57.62	964.7517336267
2	66680	57.63	964.8906226265
2	66681	57.64	965.0295116263
2	66682	57.65	965.16840062611
2	66701	57.66	965.30728962591
2	66702	57.67	965.44617862571
2	66703	57.68	965.58506762552
2	66704	57.69	965.72395662532
2	66705	57.7	965.86284562513
2	66708	57.71	966.00173462493
2	66709	57.72	966.14062362474
2	66728	57.73	966.27951262454
2	66729	57.74	966.41840162435
2	66730	57.75	966.55729062415
2	66749	57.76	966.69617962396
2	66750	57.77	966.83506862377
2	66751	57.78	966.97395762357
2	66752	57.79	967.11284662338
2	66753	57.8	967.25173562319
2	66756	57.81	967.39062462299
2	66757	57.82	967.5295136228
2	66776	57.83	967.66840262261
2	66777	57.84	967.80729162242
2	66778	57.85	967.94618062223
2	66797	57.86	968.08506962204
2	66798	57.87	968.22395862185
2	66799	57.88	968.36284762166
2	66800	57.89	968.50173662147
2	66801	57.9	968.64062562128
2	66804	57.91	968.77951462109
2	66805	57.92	968.9184036209
2	66824	57.93	969.05729262071
2	66825	57.94	969.19618162052
2	66826	57.95	969.33507062033
2	66845	57.96	969.47395962015
2	66846	57.97	969.61284861996
2	66847	57.98	969.75173761977
2	66848	57.99	969.89062661958
2	66851	58	970.0295156194
2	66854	58.01	970.16840461921
2	66855	58.02	970.30729361903
2	66874	58.03	970.44618261884
2	66875	58.04	970.58507161865
2	66876	58.05	970.72396061847
2	66895	58.06	970.86284961828
2	66896	58.07	971.0017386181
2	66897	58.08	971.14062761791
2	66898	58.09	971.27951661773
2	66899	58.1	971.41840561755
2	66902	58.11	971.55729461736
2	66903	58.12	971.69618361718
2	66922	58.13	971.835072617
2	66923	58.14	971.97396161681
2	66924	58.15	972.11285061663
2	66943	58.16	972.25173961645
2	66944	58.17	972.39062861627
2	66945	58.18	972.52951761609
2	66946	58.19	972.66840661591
2	66947	58.2	972.80729561573
2	66950	58.21	972.94618461554
2	66951	58.22	973.08507361536
2	66970	58.23	973.22396261518
2	66971	58.24	973.362851615
2	66972	58.25	973.50174061482
2	66991	58.26	973.64062961465
2	66992	58.27	973.77951861447
2	66993	58.28	973.91840761429
2	66994	58.29	974.05729661411
2	66995	58.3	974.19618561393
2	66998	58.31	974.33507461375
2	66999	58.32	974.47396361358
2	67018	58.33	974.6128526134
2	67019	58.34	974.75174161322
2	67020	58.35	974.89063061304
2	67039	58.36	975.02951961287
2	67040	58.37	975.16840861269
2	67041	58.38	975.30729761252
2	67042	58.39	975.44618661234
2	67043	58.4	975.58507561217
2	67046	58.41	975.72396461199
2	67047	58.42	975.86285361182
2	67066	58.43	976.00174261164
2	67067	58.44	976.14063161147
2	67068	58.45	976.27952061129
2	67087	58.46	976.41840961112
2	67088	58.47	976.55729861095
2	67089	58.48	976.69618761077
2	67090	58.49	976.8350766106
2	67091	58.5	976.97396561043
2	67094	58.51	977.11285461025
2	67095	58.52	977.25174361008
2	67114	58.53	977.39063260991
2	67115	58.54	977.52952160974
2	67116	58.55	977.66841060957
2	67135	58.56	977.8072996094
2	67136	58.57	977.94618860923
2	67137	58.58	978.08507760906
2	67138	58.59	978.22396660889
2	67139	58.6	978.36285560872
2	67142	58.61	978.50174460855
2	67143	58.62	978.64063360838
2	67162	58.63	978.77952260821
2	67163	58.64	978.91841160804
2	67164	58.65	979.05730060787
2	67183	58.66	979.1961896077
2	67184	58.67	979.33507860753
2	67185	58.68	979.47396760736
2	67186	58.69	979.6128566072
2	67187	58.7	979.75174560703
2	67190	58.71	979.89063460686
2	67191	58.72	980.0295236067
2	67210	58.73	980.16841260653
2	67211	58.74	980.30730160636
2	67212	58.75	980.4461906062
2	67231	58.76	980.58507960603
2	67232	58.77	980.72396860587
2	67233	58.78	980.8628576057
2	67234	58.79	981.00174660554
2	67235	58.8	981.14063560537
2	67238	58.81	981.27952460521
2	67239	58.82	981.41841360504
2	67258	58.83	981.55730260488
2	67259	58.84	981.69619160471
2	67260	58.85	981.83508060455
2	67279	58.86	981.97396960439
2	67280	58.87	982.11285860422
2	67281	58.88	982.25174760406
2	67282	58.89	982.3906366039
2	67283	58.9	982.52952560374
2	67286	58.91	982.66841460358
2	67287	58.92	982.80730360341
2	67306	58.93	982.94619260325
2	67307	58.94	983.08508160309
2	67308	58.95	983.22397060293
2	67327	58.96	983.36285960277
2	67328	58.97	983.50174860261
2	67329	58.98	983.64063760245
2	67330	58.99	983.77952660229
2	67333	59	983.91841560213
2	67336	59.01	984.05730460197
2	67337	59.02	984.19619360181
2	67356	59.03	984.33508260165
2	67357	59.04	984.47397160149
2	67358	59.05	984.61286060133
2	67377	59.06	984.75174960118
2	67378	59.07	984.89063860102
2	67379	59.08	985.02952760086
2	67380	59.09	985.1684166007
2	67381	59.1	985.30730560055
2	67384	59.11	985.44619460039
2	67385	59.12	985.58508360023
2	67404	59.13	985.72397260008
2	67405	59.14	985.86286159992
2	67406	59.15	986.00175059976
2	67425	59.16	986.14063959961
2	67426	59.17	986.27952859945
2	67427	59.18	986.4184175993
2	67428	59.19	986.55730659914
2	67429	59.2	986.69619559899
2	67432	59.21	986.83508459883
2	67433	59.22	986.97397359868
2	67452	59.23	987.11286259852
2	67453	59.24	987.25175159837
2	67454	59.25	987.39064059822
2	67473	59.26	987.52952959806
2	67474	59.27	987.66841859791
2	67475	59.28	987.80730759776
2	67476	59.29	987.94619659761
2	67477	59.3	988.08508559745
2	67480	59.31	988.2239745973
2	67481	59.32	988.36286359715
2	67500	59.33	988.501752597
2	67501	59.34	988.64064159685
2	67502	59.35	988.77953059669
2	67521	59.36	988.91841959654
2	67522	59.37	989.05730859639
2	67523	59.38	989.19619759624
2	67524	59.39	989.33508659609
2	67525	59.4	989.47397559594
2	67528	59.41	989.61286459579
2	67529	59.42	989.75175359564
2	67548	59.43	989.89064259549
2	67549	59.44	990.02953159534
2	67550	59.45	990.1684205952
2	67569	59.46	990.30730959505
2	67570	59.47	990.4461985949
2	67571	59.48	990.58508759475
2	67572	59.49	990.7239765946
2	67573	59.5	990.86286559446
2	67576	59.51	991.00175459431
2	67577	59.52	991.14064359416
2	67596	59.53	991.27953259401
2	67597	59.54	991.41842159387
2	67598	59.55	991.55731059372
2	67617	59.56	991.69619959357
2	67618	59.57	991.83508859343
2	67619	59.58	991.97397759328
2	67620	59.59	992.11286659314
2	67621	59.6	992.25175559299
2	67624	59.61	992.39064459285
2	67625	59.62	992.5295335927
2	67644	59.63	992.66842259256
2	67645	59.64	992.80731159241
2	67646	59.65	992.94620059227
2	67665	59.66	993.08508959212
2	67666	59.67	993.22397859198
2	67667	59.68	993.36286759183
2	67668	59.69	993.50175659169
2	67669	59.7	993.64064559155
2	67672	59.71	993.77953459141
2	67673	59.72	993.91842359126
2	67692	59.73	994.05731259112
2	67693	59.74	994.19620159098
2	67694	59.75	994.33509059084
2	67713	59.76	994.47397959069
2	67714	59.77	994.61286859055
2	67715	59.78	994.75175759041
2	67716	59.79	994.89064659027
2	67717	59.8	995.02953559013
2	67720	59.81	995.16842458999
2	67721	59.82	995.30731358985
2	67740	59.83	995.44620258971
2	67741	59.84	995.58509158957
2	67742	59.85	995.72398058943
2	67761	59.86	995.86286958929
2	67762	59.87	996.00175858915
2	67763	59.88	996.14064758901
2	67764	59.89	996.27953658887
2	67765	59.9	996.41842558873
2	67768	59.91	996.55731458859
2	67769	59.92	996.69620358845
2	67788	59.93	996.83509258832
2	67789	59.94	996.97398158818
2	67790	59.95	997.11287058804
2	67809	59.96	997.2517595879
2	67810	59.97	997.39064858777
2	67811	59.98	997.52953758763
2	67812	59.99	997.66842658749
2	67815	60	997.80731558736
2	67818	60.01	997.94620458722
2	67819	60.02	998.08509358708
2	67838	60.03	998.22398258695
2	67839	60.04	998.36287158681
2	67840	60.05	998.50176058668
2	67859	60.06	998.64064958654
2	67860	60.07	998.77953858641
2	67861	60.08	998.91842758627
2	67862	60.09	999.05731658614
2	67863	60.1	999.196205586
2	67866	60.11	999.33509458587
2	67867	60.12	999.47398358573
2	67886	60.13	999.6128725856
2	67887	60.14	999.75176158547
2	67888	60.15	999.89065058533
2	67907	60.16	1000.0295395852
2	67908	60.17	1000.1684285851
2	67909	60.18	1000.3073175849
2	67910	60.19	1000.4462065848
2	67911	60.2	1000.5850955847
2	67914	60.21	1000.7239845845
2	67915	60.22	1000.8628735844
2	67934	60.23	1001.0017625843
2	67935	60.24	1001.1406515841
2	67936	60.25	1001.279540584
2	67955	60.26	1001.4184295839
2	67956	60.27	1001.5573185837
2	67957	60.28	1001.6962075836
2	67958	60.29	1001.8350965835
2	67959	60.3	1001.9739855834
2	67962	60.31	1002.1128745832
2	67963	60.32	1002.2517635831
2	67982	60.33	1002.390652583
2	67983	60.34	1002.5295415828
2	67984	60.35	1002.6684305827
2	68003	60.36	1002.8073195826
2	68004	60.37	1002.9462085824
2	68005	60.38	1003.0850975823
2	68006	60.39	1003.2239865822
2	68007	60.4	1003.3628755821
2	68010	60.41	1003.5017645819
2	68011	60.42	1003.6406535818
2	68030	60.43	1003.7795425817
2	68031	60.44	1003.9184315816
2	68032	60.45	1004.0573205814
2	68051	60.46	1004.1962095813
2	68052	60.47	1004.3350985812
2	68053	60.48	1004.473987581
2	68054	60.49	1004.6128765809
2	68055	60.5	1004.7517655808
2	68058	60.51	1004.8906545807
2	68059	60.52	1005.0295435805
2	68078	60.53	1005.1684325804
2	68079	60.54	1005.3073215803
2	68080	60.55	1005.4462105802
2	68099	60.56	1005.58509958
2	68100	60.57	1005.7239885799
2	68101	60.58	1005.8628775798
2	68102	60.59	1006.0017665797
2	68103	60.6	1006.1406555795
2	68106	60.61	1006.2795445794
2	68107	60.62	1006.4184335793
2	68126	60.63	1006.5573225792
2	68127	60.64	1006.696211579
2	68128	60.65	1006.8351005789
2	68147	60.66	1006.9739895788
2	68148	60.67	1007.1128785787
2	68149	60.68	1007.2517675786
2	68150	60.69	1007.3906565784
2	68151	60.7	1007.5295455783
2	68154	60.71	1007.6684345782
2	68155	60.72	1007.8073235781
2	68174	60.73	1007.9462125779
2	68175	60.74	1008.0851015778
2	68176	60.75	1008.2239905777
2	68195	60.76	1008.3628795776
2	68196	60.77	1008.5017685775
2	68197	60.78	1008.6406575773
2	68198	60.79	1008.7795465772
2	68199	60.8	1008.9184355771
2	68202	60.81	1009.057324577
2	68203	60.82	1009.1962135769
2	68222	60.83	1009.3351025767
2	68223	60.84	1009.4739915766
2	68224	60.85	1009.6128805765
2	68243	60.86	1009.7517695764
2	68244	60.87	1009.8906585763
2	68245	60.88	1010.0295475761
2	68246	60.89	1010.168436576
2	68247	60.9	1010.3073255759
2	68250	60.91	1010.4462145758
2	68251	60.92	1010.5851035757
2	68270	60.93	1010.7239925755
2	68271	60.94	1010.8628815754
2	68272	60.95	1011.0017705753
2	68291	60.96	1011.1406595752
2	68292	60.97	1011.2795485751
2	68293	60.98	1011.418437575
2	68294	60.99	1011.5573265748
2	68297	61	1011.6962155747
2	68300	61.01	1011.8351045746
2	68301	61.02	1011.9739935745
2	68320	61.03	1012.1128825744
2	68321	61.04	1012.2517715743
2	68322	61.05	1012.3906605741
2	68341	61.06	1012.529549574
2	68342	61.07	1012.6684385739
2	68343	61.08	1012.8073275738
2	68344	61.09	1012.9462165737
2	68345	61.1	1013.0851055736
2	68348	61.11	1013.2239945734
2	68349	61.12	1013.3628835733
2	68368	61.13	1013.5017725732
2	68369	61.14	1013.6406615731
2	68370	61.15	1013.779550573
2	68389	61.16	1013.9184395729
2	68390	61.17	1014.0573285728
2	68391	61.18	1014.1962175726
2	68392	61.19	1014.3351065725
2	68393	61.2	1014.4739955724
2	68396	61.21	1014.6128845723
2	68397	61.22	1014.7517735722
2	68416	61.23	1014.8906625721
2	68417	61.24	1015.029551572
2	68418	61.25	1015.1684405719
2	68437	61.26	1015.3073295717
2	68438	61.27	1015.4462185716
2	68439	61.28	1015.5851075715
2	68440	61.29	1015.7239965714
2	68441	61.3	1015.8628855713
2	68444	61.31	1016.0017745712
2	68445	61.32	1016.1406660221
2	68456	61.33	1016.2795647778
2	68457	61.34	1016.4184755972
2	68458	61.35	1016.5574031456
2	68459	61.36	1016.6963519969
2	68460	61.37	1016.8353266355
2	68461	61.38	1016.9743314577
2	68462	61.39	1017.1133707735
2	68463	61.4	1017.2524488086
2	68465	61.41	1017.3915697058
2	68466	61.42	1017.5307375265
2	68477	61.43	1017.6699562528
2	68478	61.44	1017.8092297883
2	68479	61.45	1017.9485619604
2	68480	61.46	1018.0879565212
2	68481	61.47	1018.2274171495
2	68482	61.48	1018.3669474518
2	68483	61.49	1018.5065509638
2	68484	61.5	1018.646231152
2	68486	61.51	1018.785991415
2	68487	61.52	1018.9258350845
2	68498	61.53	1019.0657654273
2	68499	61.54	1019.2057856456
2	68500	61.55	1019.3458988793
2	68501	61.56	1019.4861082064
2	68502	61.57	1019.6264166448
2	68503	61.58	1019.766827153
2	68504	61.59	1019.9073426316
2	68505	61.6	1020.0479659244
2	68507	61.61	1020.1886998192
2	68508	61.62	1020.3295470495
2	68519	61.63	1020.4705102949
2	68520	61.64	1020.6115921824
2	68521	61.65	1020.7527952879
2	68522	61.66	1020.8941221364
2	68523	61.67	1021.0355752036
2	68524	61.68	1021.1771569165
2	68525	61.69	1021.3188696547
2	68526	61.7	1021.4607157509
2	68528	61.71	1021.6026974923
2	68529	61.72	1021.7448171211
2	68540	61.73	1021.8870768356
2	68541	61.74	1022.029478791
2	68542	61.75	1022.1720251002
2	68543	61.76	1022.3147178347
2	68544	61.77	1022.4575590254
2	68545	61.78	1022.6005506634
2	68546	61.79	1022.7436947006
2	68547	61.8	1022.8869930508
2	68549	61.81	1023.0304475902
2	68550	61.82	1023.1740601582
2	68561	61.83	1023.3178325583
2	68562	61.84	1023.4617665583
2	68563	61.85	1023.6058638917
2	68564	61.86	1023.7501262577
2	68565	61.87	1023.8945553225
2	68566	61.88	1024.0391527193
2	68567	61.89	1024.1839200495
2	68568	61.9	1024.328858883
2	68570	61.91	1024.473970759
2	68571	61.92	1024.6192571865
2	68582	61.93	1024.7647196448

