version 3
run OvertakeNoGui-164-20241104-10:00:50-90828
attr configname OvertakeNoGui
attr datetime 20241104-10:00:50
attr datetimef 20241104-100050
attr experiment OvertakeNoGui
attr inifile omnetpp.ini
attr iterationvars "$leaderHeadway=1.2, $leaderSpeed=50, $controller=0, $pCSpeed=52, $pDeltaC=504"
attr iterationvarsd leaderHeadway=1.2/leaderSpeed=50/controller=0/pCSpeed=52/pDeltaC=504
attr iterationvarsf leaderHeadway=1.2,leaderSpeed=50,controller=0,pCSpeed=52,pDeltaC=504-
attr measurement "$leaderHeadway=1.2, $leaderSpeed=50, $controller=0, $pCSpeed=52, $pDeltaC=504"
attr network Overtake
attr processid 90828
attr repetition 0
attr replication #0
attr resultdir results
attr runnumber 164
attr seedset 0
itervar controller 0
itervar leaderHeadway 1.2
itervar leaderSpeed 50
itervar pCSpeed 52
itervar pDeltaC 504
config image-path ../../../../veins/images;../../images
config *.manager.command "\"sumo\""
config *.manager.ignoreGuiCommands true
config *.node[*].scenario_type "\"OvertakeScenario\""
config output-vector-file results/OvertakeNoGui_52_504_0.vec
config output-scalar-file results/OvertakeNoGui_52_504_0.sca
config cmdenv-express-mode false
config cmdenv-autoflush true
config cmdenv-status-frequency 10s
config num-rngs 6
config cmdenv-output-file log.txt
config cmdenv-redirect-output true
config network Overtake
config debug-on-errors true
config print-undisposed true
config *.playgroundSizeX 65000m
config *.playgroundSizeY 25000m
config *.playgroundSizeZ 50m
config sim-time-limit "360 s"
config *.annotations.draw false
config *.obstacles.debug false
config *.world.useTorus false
config *.world.use2D false
config *.manager.updateInterval 0.01s
config *.manager.host "\"localhost\""
config *.manager.moduleType "\"vtypeauto=org.car2x.plexe.PlatoonCar vtypehuman=0\""
config *.manager.moduleName "\"vtypeauto=node vtypehuman=0\""
config *.manager.moduleDisplayString "\"\""
config *.manager.autoShutdown true
config *.manager.margin 25
config *.manager.order -1
config *.connectionManager.sendDirect true
config *.connectionManager.maxInterfDist 2600m
config *.connectionManager.drawMaxIntfDist false
config *.**.nic.mac1609_4.useServiceChannel false
config *.**.nic.mac1609_4.txPower 100mW
config *.**.nic.mac1609_4.bitrate 6Mbps
config *.**.nic.mac1609_4.useAcks true
config *.**.nic.mac1609_4.ackErrorRate 0.0
config *.**.nic.mac1609_4.frameErrorRate 0.0
config *.**.nic.phy80211p.minPowerLevel -94dBm
config *.**.nic.phy80211p.maxTXPower 100mW
config *.**.nic.phy80211p.useNoiseFloor true
config *.**.nic.phy80211p.noiseFloor -95dBm
config *.**.nic.phy80211p.decider "xmldoc(\"config.xml\")"
config *.**.nic.phy80211p.analogueModels "xmldoc(\"config.xml\")"
config *.**.nic.phy80211p.usePropagationDelay true
config *.node[*].mobility.x 0
config *.node[*].mobility.y 0
config *.node[*].mobility.z 1.895
config *.shockwave[*].mobility.x 0
config *.shockwave[*].mobility.y 0
config *.shockwave[*].mobility.z 1.895
config seed-set 0
config **.seed 0
config *.node[*].prot.rng-0 2
config *.node[*].appl.rng-0 3
config *.node[*].scenario.rng-0 4
config *.manager.configFile "\"./sumocfg/overtake.sumo.cfg\""
config *.manager.launchConfig "xmldoc(\"./sumocfg/overtake.launchd.xml\")"
config *.node[*].helper_type "\"PositionHelper\""
config *.node[*].scenario.caccC1 0.5
config *.node[*].scenario.caccXi 1
config *.node[*].scenario.caccOmegaN "0.2 Hz"
config *.node[*].scenario.caccSpacing "5 m"
config *.node[*].scenario.engineTau "0.5 s"
config *.node[*].scenario.ploegH "0.5 s"
config *.node[*].scenario.ploegKp 0.2
config *.node[*].scenario.ploegKd 0.7
config *.node[*].scenario.useRealisticEngine false
config *.node[*].scenario.targetController "\"CACC\""
config *.node[*].scenario.accHeadway "0.1 s"
config *.node[*].scenario.leaderHeadway "1.2 s"
config *.node[*].scenario.leaderSpeed "50 kmph"
config *.node[*].appl_type "\"OvertakeApp\""
config *.node[*].appl.*.scalar-recording true
config *.node[*].appl.*.vector-recording true
config *.node[*].appl.overtakeManeuver "\"OvertakeManeuver\""
config *.node[*].protocol_type "\"SimplePlatooningBeaconing\""
config *.node[*].prot.*.scalar-recording true
config *.node[*].prot.*.vector-recording true
config *.node[*].prot.beaconingInterval "0.1 s"
config *.node[*].prot.priority 4
config *.node[*].prot.packetSize 200
config *.node[*].prot.useControllerAcceleration true
config **.traffic_type "\"OvertakeTrafficManager\""
config **.traffic.platoonInsertTime "0.1 s"
config **.traffic.platooningVType "\"vtypeauto\""
config **.numericController 0
config **.traffic.platoonInsertDistance 5m
config **.traffic.platoonInsertHeadway 0s
config **.traffic.platoonLeaderHeadway 1.2s
config **.traffic.platoonASpeed 50kmph
config **.traffic.platoonBSpeed 100kmph
config **.traffic.platoonCSpeed 52kmph
config **.traffic.platoonSizeA 2
config **.traffic.platoonSizeB 1
config **.traffic.platoonSizeC 1
config **.traffic.initialPositionDeltaA 150
config **.traffic.initialPositionDeltaB 50
config **.traffic.initialPositionDeltaC 504
config **.traffic.controller "\"CACC\""
config **.scalar-recording true
config **.vector-recording true

vector 0 Overtake.node[0].mobility posx ETV
vector 1 Overtake.node[0].mobility posy ETV
vector 2 Overtake.node[1].mobility posx ETV
vector 3 Overtake.node[1].mobility posy ETV
vector 4 Overtake.node[2].mobility posx ETV
vector 5 Overtake.node[2].mobility posy ETV
vector 6 Overtake.node[3].mobility posx ETV
vector 7 Overtake.node[3].mobility posy ETV
vector 8 Overtake.node[0].mobility speed ETV
vector 9 Overtake.node[1].mobility speed ETV
vector 10 Overtake.node[2].mobility speed ETV
vector 11 Overtake.node[3].mobility speed ETV
vector 12 Overtake.node[0].mobility acceleration ETV
vector 13 Overtake.node[0].mobility co2emission ETV
vector 14 Overtake.node[1].mobility acceleration ETV
vector 15 Overtake.node[1].mobility co2emission ETV
vector 16 Overtake.node[2].mobility acceleration ETV
vector 17 Overtake.node[2].mobility co2emission ETV
vector 18 Overtake.node[3].mobility acceleration ETV
vector 19 Overtake.node[3].mobility co2emission ETV
vector 20 Overtake.node[0].appl distance ETV
vector 21 Overtake.node[0].appl relativeSpeed ETV
vector 22 Overtake.node[0].appl nodeId ETV
vector 23 Overtake.node[0].appl acceleration ETV
vector 24 Overtake.node[0].appl controllerAcceleration ETV
vector 25 Overtake.node[0].appl speed ETV
vector 26 Overtake.node[0].appl posx ETV
vector 27 Overtake.node[0].appl posy ETV
vector 28 Overtake.node[1].appl distance ETV
vector 29 Overtake.node[1].appl relativeSpeed ETV
vector 30 Overtake.node[1].appl nodeId ETV
vector 31 Overtake.node[1].appl acceleration ETV
vector 32 Overtake.node[1].appl controllerAcceleration ETV
vector 33 Overtake.node[1].appl speed ETV
vector 34 Overtake.node[1].appl posx ETV
vector 35 Overtake.node[1].appl posy ETV
vector 36 Overtake.node[2].appl distance ETV
vector 37 Overtake.node[2].appl relativeSpeed ETV
vector 38 Overtake.node[2].appl nodeId ETV
vector 39 Overtake.node[2].appl acceleration ETV
vector 40 Overtake.node[2].appl controllerAcceleration ETV
vector 41 Overtake.node[2].appl speed ETV
vector 42 Overtake.node[2].appl posx ETV
vector 43 Overtake.node[2].appl posy ETV
vector 44 Overtake.node[3].appl distance ETV
vector 45 Overtake.node[3].appl relativeSpeed ETV
vector 46 Overtake.node[3].appl nodeId ETV
vector 47 Overtake.node[3].appl acceleration ETV
vector 48 Overtake.node[3].appl controllerAcceleration ETV
vector 49 Overtake.node[3].appl speed ETV
vector 50 Overtake.node[3].appl posx ETV
vector 51 Overtake.node[3].appl posy ETV
vector 52 Overtake.node[1].prot leaderDelay ETV
vector 53 Overtake.node[1].prot leaderDelayId ETV
vector 54 Overtake.node[1].prot frontDelay ETV
vector 55 Overtake.node[1].prot frontDelayId ETV
vector 56 Overtake.node[0].prot nodeId ETV
vector 57 Overtake.node[0].prot busyTime ETV
vector 58 Overtake.node[0].prot collisions ETV
vector 59 Overtake.node[1].prot nodeId ETV
vector 60 Overtake.node[1].prot busyTime ETV
vector 61 Overtake.node[1].prot collisions ETV
vector 62 Overtake.node[2].prot nodeId ETV
vector 63 Overtake.node[2].prot busyTime ETV
vector 64 Overtake.node[2].prot collisions ETV
vector 65 Overtake.node[3].prot nodeId ETV
vector 66 Overtake.node[3].prot busyTime ETV
vector 67 Overtake.node[3].prot collisions ETV
48	26	0.21	0.00437036
48	176	0.31	0.00426837
48	326	0.41	0.00410815
48	476	0.51	0.00390303
48	626	0.61	0.00366476
48	776	0.71	0.00340356
48	926	0.81	0.00312825
48	1076	0.91	0.00284628
48	1230	1.01	0.00256392
48	1381	1.11	0.0022863
48	1532	1.21	0.00201755
48	1683	1.31	0.00176089
48	2046	1.41	0.00151876
48	2196	1.51	0.00129289
48	2346	1.61	0.00108441
48	2496	1.71	0.00089393
48	2646	1.81	0.000721638
48	2796	1.91	0.000567355
48	2950	2.01	0.000430614
48	3100	2.11	0.000310715
48	3250	2.21	0.000206783
48	3400	2.31	0.000117814
48	3763	2.41	4.27149e-05
48	3914	2.51	-1.96584e-05
48	4064	2.61	-7.04736e-05
48	4214	2.71	-0.000110896
48	4364	2.81	-0.000142067
48	4514	2.91	-0.00016509
48	4668	3.01	-0.000181016
48	4818	3.11	-0.000190834
48	4968	3.21	-0.000195466
48	5118	3.31	-0.00019576
48	5269	3.41	-0.000192489
48	5676	3.51	-0.000186354
48	5826	3.61	-0.000177979
48	5976	3.71	-0.000167916
48	6126	3.81	-0.000156649
48	6276	3.91	-0.000144597
48	6430	4.01	-0.000132116
48	6580	4.11	-0.000119508
48	6730	4.21	-0.000107021
48	6880	4.31	-9.48587e-05
48	7030	4.41	-8.31796e-05
48	7393	4.51	-7.21068e-05
48	7544	4.61	-6.17299e-05
48	7694	4.71	-5.21101e-05
48	7844	4.81	-4.32839e-05
48	7994	4.91	-3.52669e-05
48	8148	5.01	-2.80577e-05
48	8298	5.11	-2.16404e-05
48	8448	5.21	-1.59878e-05
48	8598	5.31	-1.1064e-05
48	8748	5.41	-6.82631e-06
48	8899	5.51	-3.22748e-06
48	9262	5.61	-2.17308e-07
48	9412	5.71	2.25598e-06
48	9562	5.81	4.24448e-06
48	9712	5.91	5.79961e-06
48	9866	6.01	6.97134e-06
48	10016	6.11	7.80753e-06
48	10166	6.21	8.35346e-06
48	10316	6.31	8.65149e-06
48	10466	6.41	8.7408e-06
48	10616	6.51	8.6573e-06
48	11023	6.61	8.43352e-06
48	11174	6.71	8.09868e-06
48	11324	6.81	7.67874e-06
48	11474	6.91	7.19651e-06
48	11628	7.01	6.67185e-06
48	11778	7.11	6.12177e-06
48	11928	7.21	5.56072e-06
48	12078	7.31	5.00073e-06
48	12228	7.41	4.45164e-06
48	12378	7.51	3.92136e-06
48	12529	7.61	3.41601e-06
48	12892	7.71	2.94018e-06
48	13042	7.81	2.4971e-06
48	13192	7.91	2.08883e-06
48	13346	8.01	1.71644e-06
48	13496	8.11	1.38016e-06
48	13646	8.21	1.07955e-06
48	13796	8.31	8.13576e-07
48	13946	8.41	5.80794e-07
48	14096	8.51	3.79414e-07
48	14246	8.61	2.07407e-07
48	14609	8.71	6.25821e-08
48	14760	8.81	-5.73475e-08
48	14910	8.91	-1.54703e-07
48	15064	9.01	-2.31794e-07
48	15214	9.11	-2.90877e-07
48	15364	9.21	-3.3413e-07
48	15514	9.31	-3.63618e-07
48	15664	9.41	-3.81288e-07
48	15814	9.51	-3.88944e-07
48	15964	9.61	-3.88249e-07
48	16115	9.71	-3.80715e-07
48	16522	9.81	-3.67706e-07
48	16672	9.91	-3.50439e-07
48	16826	10.01	-3.29989e-07
48	16976	10.11	-3.07294e-07
48	17126	10.21	-2.83164e-07
48	17276	10.31	-2.58291e-07
48	17426	10.41	-2.33254e-07
48	17576	10.51	-2.0853e-07
48	17726	10.61	-1.84509e-07
48	17876	10.71	-1.61493e-07
48	18239	10.81	-1.39716e-07
48	18390	10.91	-1.19345e-07
48	18544	11.01	-1.00494e-07
48	18694	11.11	-8.32262e-08
48	18844	11.21	-6.7568e-08
48	18994	11.31	-5.35112e-08
48	19144	11.41	-4.10198e-08
48	19294	11.51	-3.00368e-08
48	19444	11.61	-2.04881e-08
48	19594	11.71	-1.22876e-08
48	19745	11.81	-5.33973e-09
48	20108	11.91	4.55636e-10
48	20262	12.01	5.20171e-09
48	20412	12.11	9.00169e-09
48	20562	12.21	1.19577e-08
48	20712	12.31	1.41682e-08
48	20862	12.41	1.57275e-08
48	21012	12.51	1.67244e-08
48	21162	12.61	1.72424e-08
48	21312	12.71	1.7358e-08
48	21462	12.81	1.71415e-08
48	21913	12.91	1.66565e-08
48	22068	13.01	1.59599e-08
48	22218	13.11	1.51022e-08
48	22368	13.21	1.41277e-08
48	22518	13.31	1.30749e-08
48	22668	13.41	1.19766e-08
48	22818	13.51	1.08608e-08
48	22968	13.61	9.75078e-09
48	23118	13.71	8.66525e-09
48	23268	13.81	7.61933e-09
48	23419	13.91	6.62457e-09
48	23806	14.01	5.68967e-09
48	23956	14.11	4.82068e-09
48	24106	14.21	4.02149e-09
48	24256	14.31	3.29354e-09
48	24406	14.41	2.63736e-09
48	24556	14.51	2.05187e-09
48	24706	14.61	1.53459e-09
48	24856	14.71	1.08287e-09
48	25006	14.81	6.92779e-10
48	25156	14.91	3.60245e-10
48	25567	15.01	8.11795e-11
48	25718	15.11	-1.49392e-10
48	25868	15.21	-3.35731e-10
48	26018	15.31	-4.82636e-10
48	26168	15.41	-5.94369e-10
48	26318	15.51	-6.75549e-10
48	26468	15.61	-7.29905e-10
48	26618	15.71	-7.61524e-10
48	26768	15.81	-7.73781e-10
48	26918	15.91	-7.69873e-10
48	27072	16.01	-7.5282e-10
48	27222	16.11	-7.25464e-10
48	27372	16.21	-6.89937e-10
48	27522	16.31	-6.4837e-10
48	27672	16.41	-6.02718e-10
48	27822	16.51	-5.54401e-10
48	27972	16.61	-5.05018e-10
48	28122	16.71	-4.5528e-10
48	28272	16.81	-4.06253e-10
48	28422	16.91	-3.58824e-10
48	28576	17.01	-3.13527e-10
48	28726	17.11	-2.70717e-10
48	28876	17.21	-2.30749e-10
48	29026	17.31	-1.93801e-10
48	29176	17.41	-1.6005e-10
48	29326	17.51	-1.29496e-10
48	29476	17.61	-1.02141e-10
48	29626	17.71	-7.78044e-11
48	29776	17.81	-5.64881e-11
48	29926	17.91	-3.8014e-11
48	30080	18.01	-2.20268e-11
48	30230	18.11	-8.70415e-12
48	30380	18.21	2.4869e-12
48	30530	18.31	1.1724e-11
48	30680	18.41	1.88294e-11
48	30830	18.51	2.45137e-11
48	30980	18.61	2.8777e-11
48	31130	18.71	3.16192e-11
48	31280	18.81	3.33955e-11
48	31430	18.91	3.42837e-11
48	31584	19.01	3.44613e-11
48	31734	19.11	3.39284e-11
48	31884	19.21	3.28626e-11
48	32034	19.31	3.14415e-11
48	32184	19.41	2.98428e-11
48	32334	19.51	2.78888e-11
48	32484	19.61	2.57572e-11
48	32634	19.71	2.34479e-11
48	32784	19.81	2.13163e-11
48	32934	19.91	1.91847e-11
48	33088	20.01	1.7053e-11
48	33238	20.11	1.49214e-11
48	33388	20.21	1.3145e-11
48	33538	20.31	1.13687e-11
48	33688	20.41	9.76996e-12
48	33838	20.51	8.52651e-12
48	33988	20.61	7.28306e-12
48	34138	20.71	6.03961e-12
48	34288	20.81	5.15143e-12
48	34438	20.91	4.26326e-12
48	34592	21.01	3.37508e-12
48	34742	21.11	2.66454e-12
48	34892	21.21	1.95399e-12
48	35042	21.31	1.24345e-12
48	35192	21.41	7.10543e-13
48	35342	21.51	3.55271e-13
48	35492	21.61	-1.77636e-13
48	35642	21.71	-5.32907e-13
48	35792	21.81	-8.88178e-13
48	35942	21.91	-1.24345e-12
48	36096	22.01	-1.59872e-12
48	36246	22.11	-1.77636e-12
48	36396	22.21	-2.13163e-12
48	36546	22.31	-2.30926e-12
48	36696	22.41	-2.4869e-12
48	36846	22.51	-2.66454e-12
48	36996	22.61	-2.84217e-12
48	37146	22.71	-3.01981e-12
48	37296	22.81	-3.19744e-12
48	37446	22.91	-3.37508e-12
48	37600	23.01	-3.37508e-12
48	37750	23.11	-3.55271e-12
48	37900	23.21	-3.55271e-12
48	38050	23.31	-3.73035e-12
48	38200	23.41	-3.73035e-12
48	38350	23.51	-3.73035e-12
48	38500	23.61	-3.90799e-12
48	38650	23.71	-3.90799e-12
48	38800	23.81	-3.90799e-12
48	38950	23.91	-4.08562e-12
48	39104	24.01	-4.08562e-12
48	39254	24.11	-4.08562e-12
48	39404	24.21	-4.08562e-12
48	39554	24.31	-4.08562e-12
48	39704	24.41	-4.26326e-12
48	39854	24.51	-4.26326e-12
48	40004	24.61	-4.26326e-12
48	40154	24.71	-4.26326e-12
48	40304	24.81	-4.26326e-12
48	40454	24.91	-4.26326e-12
48	40608	25.01	-4.26326e-12
48	40758	25.11	-4.26326e-12
48	40908	25.21	-4.26326e-12
48	41058	25.31	-4.26326e-12
48	41208	25.41	-4.44089e-12
48	41358	25.51	-4.44089e-12
48	41508	25.61	-4.44089e-12
48	41658	25.71	-4.44089e-12
48	41808	25.81	-4.44089e-12
48	41958	25.91	-4.44089e-12
48	42112	26.01	-4.44089e-12
48	42262	26.11	-4.44089e-12
48	42412	26.21	-4.44089e-12
48	42562	26.31	-4.44089e-12
48	42712	26.41	-4.44089e-12
48	42862	26.51	-4.44089e-12
48	43012	26.61	-4.44089e-12
48	43163	26.71	-4.44089e-12
48	43313	26.81	-4.44089e-12
48	43463	26.91	-4.44089e-12
48	43617	27.01	-4.44089e-12
48	43767	27.11	-4.44089e-12
48	43917	27.21	-4.44089e-12
48	44067	27.31	-4.44089e-12
48	44217	27.41	-4.44089e-12
48	44367	27.51	-4.44089e-12
48	44517	27.61	-4.44089e-12
48	44667	27.71	-4.44089e-12
48	44817	27.81	-4.44089e-12
48	44967	27.91	-4.44089e-12
48	45121	28.01	-4.44089e-12
48	45271	28.11	-4.44089e-12
48	45421	28.21	-4.44089e-12
48	45571	28.31	-4.44089e-12
48	45721	28.41	-4.44089e-12
48	45871	28.51	-4.44089e-12
48	46021	28.61	-4.44089e-12
48	46171	28.71	-4.44089e-12
48	46321	28.81	-4.44089e-12
48	46471	28.91	-4.44089e-12
48	46625	29.01	-4.44089e-12
48	46775	29.11	-4.44089e-12
48	46925	29.21	-4.44089e-12
48	47075	29.31	-4.44089e-12
48	47225	29.41	-4.44089e-12
48	47375	29.51	-4.44089e-12
48	47525	29.61	-4.44089e-12
48	47675	29.71	-4.44089e-12
48	47825	29.81	-4.44089e-12
48	47975	29.91	-4.44089e-12
48	48129	30.01	-4.44089e-12
48	48279	30.11	-4.44089e-12
48	48429	30.21	-4.44089e-12
48	48579	30.31	-4.44089e-12
48	48729	30.41	-4.44089e-12
48	48879	30.51	-4.44089e-12
48	49029	30.61	-4.44089e-12
48	49179	30.71	-4.44089e-12
48	49329	30.81	-4.44089e-12
48	49479	30.91	-4.44089e-12
48	49633	31.01	-4.44089e-12
48	49783	31.11	-4.44089e-12
48	49933	31.21	-4.44089e-12
48	50083	31.31	-4.44089e-12
48	50233	31.41	-4.44089e-12
48	50383	31.51	-4.44089e-12
48	50533	31.61	-4.44089e-12
48	50683	31.71	-4.44089e-12
48	50833	31.81	-4.44089e-12
48	50983	31.91	-4.44089e-12
48	51137	32.01	-4.44089e-12
48	51287	32.11	-4.44089e-12
48	51437	32.21	-4.44089e-12
48	51587	32.31	-4.44089e-12
48	51737	32.41	-4.44089e-12
48	51887	32.51	-4.44089e-12
48	52037	32.61	-4.44089e-12
48	52187	32.71	-4.44089e-12
48	52337	32.81	-4.44089e-12
48	52487	32.91	-4.44089e-12
48	52641	33.01	-4.44089e-12
48	52791	33.11	-4.44089e-12
48	52941	33.21	-4.44089e-12
48	53091	33.31	-4.44089e-12
48	53241	33.41	-4.44089e-12
48	53391	33.51	-4.44089e-12
48	53541	33.61	-4.44089e-12
48	53691	33.71	-4.44089e-12
48	53841	33.81	-4.44089e-12
48	53991	33.91	-4.44089e-12
48	54145	34.01	-4.44089e-12
48	54295	34.11	-4.44089e-12
48	54445	34.21	-4.44089e-12
48	54595	34.31	-4.44089e-12
48	54745	34.41	-4.44089e-12
47	26	0.21	0.000716383
47	176	0.31	0.00136341
47	326	0.41	0.00186974
47	476	0.51	0.00225157
47	626	0.61	0.00252443
47	776	0.71	0.00270298
47	926	0.81	0.00280098
47	1076	0.91	0.00283113
47	1230	1.01	0.00280509
47	1381	1.11	0.00273342
47	1532	1.21	0.00262559
47	1683	1.31	0.00249005
47	2046	1.41	0.00233419
47	2196	1.51	0.00216447
47	2346	1.61	0.00198642
47	2496	1.71	0.00180472
47	2646	1.81	0.0016233
47	2796	1.91	0.00144536
47	2950	2.01	0.00127346
47	3100	2.11	0.0011096
47	3250	2.21	0.000955278
47	3400	2.31	0.000811546
47	3763	2.41	0.00067908
47	3914	2.51	0.000558232
47	4064	2.61	0.000449082
47	4214	2.71	0.000351487
47	4364	2.81	0.00026512
47	4514	2.91	0.000189514
47	4668	3.01	0.000124092
47	4818	3.11	6.81972e-05
47	4968	3.21	2.11209e-05
47	5118	3.31	-1.78769e-05
47	5269	3.41	-4.9548e-05
47	5676	3.51	-7.46407e-05
47	5826	3.61	-9.38867e-05
47	5976	3.71	-0.000107991
47	6126	3.81	-0.000117625
47	6276	3.91	-0.000123418
47	6430	4.01	-0.000125957
47	6580	4.11	-0.000125781
47	6730	4.21	-0.00012338
47	6880	4.31	-0.000119198
47	7030	4.41	-0.000113629
47	7393	4.51	-0.000107022
47	7544	4.61	-9.96832e-05
47	7694	4.71	-9.18747e-05
47	7844	4.81	-8.38211e-05
47	7994	4.91	-7.57109e-05
47	8148	5.01	-6.76999e-05
47	8298	5.11	-5.99137e-05
47	8448	5.21	-5.24518e-05
47	8598	5.31	-4.53896e-05
47	8748	5.41	-3.87821e-05
47	8899	5.51	-3.2666e-05
47	9262	5.61	-2.70628e-05
47	9412	5.71	-2.19809e-05
47	9562	5.81	-1.74176e-05
47	9712	5.91	-1.33618e-05
47	9866	6.01	-9.79494e-06
47	10016	6.11	-6.6932e-06
47	10166	6.21	-4.02864e-06
47	10316	6.31	-1.77051e-06
47	10466	6.41	1.13691e-07
47	10616	6.51	1.65735e-06
47	11023	6.61	2.89397e-06
47	11174	6.71	3.85652e-06
47	11324	6.81	4.57698e-06
47	11474	6.91	5.08591e-06
47	11628	7.01	5.41219e-06
47	11778	7.11	5.58279e-06
47	11928	7.21	5.6226e-06
47	12078	7.31	5.55442e-06
47	12228	7.41	5.39886e-06
47	12378	7.51	5.17441e-06
47	12529	7.61	4.89748e-06
47	12892	7.71	4.58246e-06
47	13042	7.81	4.24184e-06
47	13192	7.91	3.88634e-06
47	13346	8.01	3.52499e-06
47	13496	8.11	3.16534e-06
47	13646	8.21	2.81353e-06
47	13796	8.31	2.47446e-06
47	13946	8.41	2.15192e-06
47	14096	8.51	1.84873e-06
47	14246	8.61	1.56685e-06
47	14609	8.71	1.30751e-06
47	14760	8.81	1.0713e-06
47	14910	8.91	8.58321e-07
47	15064	9.01	6.68206e-07
47	15214	9.11	5.0026e-07
47	15364	9.21	3.53514e-07
47	15514	9.31	2.2679e-07
47	15664	9.41	1.18765e-07
47	15814	9.51	2.80163e-08
47	15964	9.61	-4.69315e-08
47	16115	9.71	-1.07573e-07
47	16522	9.81	-1.55391e-07
47	16672	9.91	-1.91831e-07
47	16826	10.01	-2.18284e-07
47	16976	10.11	-2.3607e-07
47	17126	10.21	-2.46426e-07
47	17276	10.31	-2.50502e-07
47	17426	10.41	-2.49352e-07
47	17576	10.51	-2.43937e-07
47	17726	10.61	-2.35119e-07
47	17876	10.71	-2.23669e-07
47	18239	10.81	-2.10264e-07
47	18390	10.91	-1.95496e-07
47	18544	11.01	-1.79874e-07
47	18694	11.11	-1.63833e-07
47	18844	11.21	-1.47736e-07
47	18994	11.31	-1.3188e-07
47	19144	11.41	-1.16507e-07
47	19294	11.51	-1.01806e-07
47	19444	11.61	-8.7921e-08
47	19594	11.71	-7.49532e-08
47	19745	11.81	-6.29706e-08
47	20108	11.91	-5.20114e-08
47	20262	12.01	-4.20881e-08
47	20412	12.11	-3.31928e-08
47	20562	12.21	-2.53001e-08
47	20712	12.31	-1.83714e-08
47	20862	12.41	-1.23581e-08
47	21012	12.51	-7.2033e-09
47	21162	12.61	-2.84555e-09
47	21312	12.71	7.80176e-10
47	21462	12.81	3.74065e-09
47	21913	12.91	6.10232e-09
47	22068	13.01	7.93019e-09
47	22218	13.11	9.2875e-09
47	22368	13.21	1.02345e-08
47	22518	13.31	1.08278e-08
47	22668	13.41	1.11202e-08
47	22818	13.51	1.11603e-08
47	22968	13.61	1.09935e-08
47	23118	13.71	1.06596e-08
47	23268	13.81	1.01943e-08
47	23419	13.91	9.62999e-09
47	23806	14.01	8.99423e-09
47	23956	14.11	8.31104e-09
47	24106	14.21	7.60174e-09
47	24256	14.31	6.88321e-09
47	24406	14.41	6.17053e-09
47	24556	14.51	5.47526e-09
47	24706	14.61	4.80682e-09
47	24856	14.71	4.17213e-09
47	25006	14.81	3.57652e-09
47	25156	14.91	3.02407e-09
47	25567	15.01	2.51639e-09
47	25718	15.11	2.05471e-09
47	25868	15.21	1.63922e-09
47	26018	15.31	1.26885e-09
47	26168	15.41	9.42357e-10
47	26318	15.51	6.57607e-10
47	26468	15.61	4.12115e-10
47	26618	15.71	2.0357e-10
47	26768	15.81	2.8777e-11
47	26918	15.91	-1.15286e-10
47	27072	16.01	-2.31459e-10
47	27222	16.11	-3.22586e-10
47	27372	16.21	-3.91509e-10
47	27522	16.31	-4.40536e-10
47	27672	16.41	-4.73399e-10
47	27822	16.51	-4.91696e-10
47	27972	16.61	-4.97913e-10
47	28122	16.71	-4.9436e-10
47	28272	16.81	-4.82281e-10
47	28422	16.91	-4.63629e-10
47	28576	17.01	-4.40181e-10
47	28726	17.11	-4.13003e-10
47	28876	17.21	-3.83338e-10
47	29026	17.31	-3.51896e-10
47	29176	17.41	-3.19922e-10
47	29326	17.51	-2.87947e-10
47	29476	17.61	-2.56506e-10
47	29626	17.71	-2.26308e-10
47	29776	17.81	-1.97531e-10
47	29926	17.91	-1.70353e-10
47	30080	18.01	-1.44951e-10
47	30230	18.11	-1.21503e-10
47	30380	18.21	-1.00009e-10
47	30530	18.31	-8.06466e-11
47	30680	18.41	-6.34159e-11
47	30830	18.51	-4.81393e-11
47	30980	18.61	-3.4639e-11
47	31130	18.71	-2.2915e-11
47	31280	18.81	-1.29674e-11
47	31430	18.91	-4.44089e-12
47	31584	19.01	2.66454e-12
47	31734	19.11	8.17124e-12
47	31884	19.21	1.26121e-11
47	32034	19.31	1.61648e-11
47	32184	19.41	1.86517e-11
47	32334	19.51	2.04281e-11
47	32484	19.61	2.16716e-11
47	32634	19.71	2.16716e-11
47	32784	19.81	2.16716e-11
47	32934	19.91	2.16716e-11
47	33088	20.01	2.14939e-11
47	33238	20.11	1.97176e-11
47	33388	20.21	1.79412e-11
47	33538	20.31	1.61648e-11
47	33688	20.41	1.43885e-11
47	33838	20.51	1.29674e-11
47	33988	20.61	1.1724e-11
47	34138	20.71	1.04805e-11
47	34288	20.81	9.59233e-12
47	34438	20.91	8.70415e-12
47	34592	21.01	7.81597e-12
47	34742	21.11	7.10543e-12
47	34892	21.21	6.39488e-12
47	35042	21.31	5.68434e-12
47	35192	21.41	5.15143e-12
47	35342	21.51	4.79616e-12
47	35492	21.61	4.26326e-12
47	35642	21.71	3.90799e-12
47	35792	21.81	3.55271e-12
47	35942	21.91	3.19744e-12
47	36096	22.01	2.84217e-12
47	36246	22.11	2.66454e-12
47	36396	22.21	2.30926e-12
47	36546	22.31	2.13163e-12
47	36696	22.41	1.95399e-12
47	36846	22.51	1.77636e-12
47	36996	22.61	1.59872e-12
47	37146	22.71	1.42109e-12
47	37296	22.81	1.24345e-12
47	37446	22.91	1.06581e-12
47	37600	23.01	1.06581e-12
47	37750	23.11	8.88178e-13
47	37900	23.21	8.88178e-13
47	38050	23.31	7.10543e-13
47	38200	23.41	7.10543e-13
47	38350	23.51	7.10543e-13
47	38500	23.61	5.32907e-13
47	38650	23.71	5.32907e-13
47	38800	23.81	5.32907e-13
47	38950	23.91	3.55271e-13
47	39104	24.01	3.55271e-13
47	39254	24.11	3.55271e-13
47	39404	24.21	3.55271e-13
47	39554	24.31	3.55271e-13
47	39704	24.41	1.77636e-13
47	39854	24.51	1.77636e-13
47	40004	24.61	1.77636e-13
47	40154	24.71	1.77636e-13
47	40304	24.81	1.77636e-13
47	40454	24.91	1.77636e-13
47	40608	25.01	1.77636e-13
47	40758	25.11	1.77636e-13
47	40908	25.21	1.77636e-13
47	41058	25.31	1.77636e-13
47	41208	25.41	0
47	41358	25.51	0
47	41508	25.61	0
47	41658	25.71	0
47	41808	25.81	0
47	41958	25.91	0
47	42112	26.01	0
47	42262	26.11	0
47	42412	26.21	0
47	42562	26.31	0
47	42712	26.41	0
47	42862	26.51	0
47	43012	26.61	0
47	43163	26.71	0
47	43313	26.81	0
47	43463	26.91	0
47	43617	27.01	0
47	43767	27.11	0
47	43917	27.21	0
47	44067	27.31	0
47	44217	27.41	0
47	44367	27.51	0
47	44517	27.61	0
47	44667	27.71	0
47	44817	27.81	0
47	44967	27.91	0
47	45121	28.01	0
47	45271	28.11	0
47	45421	28.21	0
47	45571	28.31	0
47	45721	28.41	0
47	45871	28.51	0
47	46021	28.61	0
47	46171	28.71	0
47	46321	28.81	0
47	46471	28.91	0
47	46625	29.01	0
47	46775	29.11	0
47	46925	29.21	0
47	47075	29.31	0
47	47225	29.41	0
47	47375	29.51	0
47	47525	29.61	0
47	47675	29.71	0
47	47825	29.81	0
47	47975	29.91	0
47	48129	30.01	0
47	48279	30.11	0
47	48429	30.21	0
47	48579	30.31	0
47	48729	30.41	0
47	48879	30.51	0
47	49029	30.61	0
47	49179	30.71	0
47	49329	30.81	0
47	49479	30.91	0
47	49633	31.01	0
47	49783	31.11	0
47	49933	31.21	0
47	50083	31.31	0
47	50233	31.41	0
47	50383	31.51	0
47	50533	31.61	0
47	50683	31.71	0
47	50833	31.81	0
47	50983	31.91	0
47	51137	32.01	0
47	51287	32.11	0
47	51437	32.21	0
47	51587	32.31	0
47	51737	32.41	0
47	51887	32.51	0
47	52037	32.61	0
47	52187	32.71	0
47	52337	32.81	0
47	52487	32.91	0
47	52641	33.01	0
47	52791	33.11	0
47	52941	33.21	0
47	53091	33.31	0
47	53241	33.41	0
47	53391	33.51	0
47	53541	33.61	0
47	53691	33.71	0
47	53841	33.81	0
47	53991	33.91	0
47	54145	34.01	0
47	54295	34.11	0
47	54445	34.21	0
47	54595	34.31	0
47	54745	34.41	0
51	26	0.21	1.6
51	176	0.31	1.6
51	326	0.41	1.6
51	476	0.51	1.6
51	626	0.61	1.6
51	776	0.71	1.6
51	926	0.81	1.6
51	1076	0.91	1.6
51	1230	1.01	1.6
51	1381	1.11	1.6
51	1532	1.21	1.6
51	1683	1.31	1.6
51	2046	1.41	1.6
51	2196	1.51	1.6
51	2346	1.61	1.6
51	2496	1.71	1.6
51	2646	1.81	1.6
51	2796	1.91	1.6
51	2950	2.01	1.6
51	3100	2.11	1.6
51	3250	2.21	1.6
51	3400	2.31	1.6
51	3763	2.41	1.6
51	3914	2.51	1.6
51	4064	2.61	1.6
51	4214	2.71	1.6
51	4364	2.81	1.6
51	4514	2.91	1.6
51	4668	3.01	1.6
51	4818	3.11	1.6
51	4968	3.21	1.6
51	5118	3.31	1.6
51	5269	3.41	1.6
51	5676	3.51	1.6
51	5826	3.61	1.6
51	5976	3.71	1.6
51	6126	3.81	1.6
51	6276	3.91	1.6
51	6430	4.01	1.6
51	6580	4.11	1.6
51	6730	4.21	1.6
51	6880	4.31	1.6
51	7030	4.41	1.6
51	7393	4.51	1.6
51	7544	4.61	1.6
51	7694	4.71	1.6
51	7844	4.81	1.6
51	7994	4.91	1.6
51	8148	5.01	1.6
51	8298	5.11	1.6
51	8448	5.21	1.6
51	8598	5.31	1.6
51	8748	5.41	1.6
51	8899	5.51	1.6
51	9262	5.61	1.6
51	9412	5.71	1.6
51	9562	5.81	1.6
51	9712	5.91	1.6
51	9866	6.01	1.6
51	10016	6.11	1.6
51	10166	6.21	1.6
51	10316	6.31	1.6
51	10466	6.41	1.6
51	10616	6.51	1.6
51	11023	6.61	1.6
51	11174	6.71	1.6
51	11324	6.81	1.6
51	11474	6.91	1.6
51	11628	7.01	1.6
51	11778	7.11	1.6
51	11928	7.21	1.6
51	12078	7.31	1.6
51	12228	7.41	1.6
51	12378	7.51	1.6
51	12529	7.61	1.6
51	12892	7.71	1.6
51	13042	7.81	1.6
51	13192	7.91	1.6
51	13346	8.01	1.6
51	13496	8.11	1.6
51	13646	8.21	1.6
51	13796	8.31	1.6
51	13946	8.41	1.6
51	14096	8.51	1.6
51	14246	8.61	1.6
51	14609	8.71	1.6
51	14760	8.81	1.6
51	14910	8.91	1.6
51	15064	9.01	1.6
51	15214	9.11	1.6
51	15364	9.21	1.6
51	15514	9.31	1.6
51	15664	9.41	1.6
51	15814	9.51	1.6
51	15964	9.61	1.6
51	16115	9.71	1.6
51	16522	9.81	1.6
51	16672	9.91	1.6
51	16826	10.01	1.6
51	16976	10.11	1.6
51	17126	10.21	1.6
51	17276	10.31	1.6
51	17426	10.41	1.6
51	17576	10.51	1.6
51	17726	10.61	1.6
51	17876	10.71	1.6
51	18239	10.81	1.6
51	18390	10.91	1.6
51	18544	11.01	1.6
51	18694	11.11	1.6
51	18844	11.21	1.6
51	18994	11.31	1.6
51	19144	11.41	1.6
51	19294	11.51	1.6
51	19444	11.61	1.6
51	19594	11.71	1.6
51	19745	11.81	1.6
51	20108	11.91	1.6
51	20262	12.01	1.6
51	20412	12.11	1.6
51	20562	12.21	1.6
51	20712	12.31	1.6
51	20862	12.41	1.6
51	21012	12.51	1.6
51	21162	12.61	1.6
51	21312	12.71	1.6
51	21462	12.81	1.6
51	21913	12.91	1.6
51	22068	13.01	1.6
51	22218	13.11	1.6
51	22368	13.21	1.6
51	22518	13.31	1.6
51	22668	13.41	1.6
51	22818	13.51	1.6
51	22968	13.61	1.6
51	23118	13.71	1.6
51	23268	13.81	1.6
51	23419	13.91	1.6
51	23806	14.01	1.6
51	23956	14.11	1.6
51	24106	14.21	1.6
51	24256	14.31	1.6
51	24406	14.41	1.6
51	24556	14.51	1.6
51	24706	14.61	1.6
51	24856	14.71	1.6
51	25006	14.81	1.6
51	25156	14.91	1.6
51	25567	15.01	1.6
51	25718	15.11	1.6
51	25868	15.21	1.6
51	26018	15.31	1.6
51	26168	15.41	1.6
51	26318	15.51	1.6
51	26468	15.61	1.6
51	26618	15.71	1.6
51	26768	15.81	1.6
51	26918	15.91	1.6
51	27072	16.01	1.6
51	27222	16.11	1.6
51	27372	16.21	1.6
51	27522	16.31	1.6
51	27672	16.41	1.6
51	27822	16.51	1.6
51	27972	16.61	1.6
51	28122	16.71	1.6
51	28272	16.81	1.6
51	28422	16.91	1.6
51	28576	17.01	1.6
51	28726	17.11	1.6
51	28876	17.21	1.6
51	29026	17.31	1.6
51	29176	17.41	1.6
51	29326	17.51	1.6
51	29476	17.61	1.6
51	29626	17.71	1.6
51	29776	17.81	1.6
51	29926	17.91	1.6
51	30080	18.01	1.6
51	30230	18.11	1.6
51	30380	18.21	1.6
51	30530	18.31	1.6
51	30680	18.41	1.6
51	30830	18.51	1.6
51	30980	18.61	1.6
51	31130	18.71	1.6
51	31280	18.81	1.6
51	31430	18.91	1.6
51	31584	19.01	1.6
51	31734	19.11	1.6
51	31884	19.21	1.6
51	32034	19.31	1.6
51	32184	19.41	1.6
51	32334	19.51	1.6
51	32484	19.61	1.6
51	32634	19.71	1.6
51	32784	19.81	1.6
51	32934	19.91	1.6
51	33088	20.01	1.6
51	33238	20.11	1.6
51	33388	20.21	1.6
51	33538	20.31	1.6
51	33688	20.41	1.6
51	33838	20.51	1.6
51	33988	20.61	1.6
51	34138	20.71	1.6
51	34288	20.81	1.6
51	34438	20.91	1.6
51	34592	21.01	1.6
51	34742	21.11	1.6
51	34892	21.21	1.6
51	35042	21.31	1.6
51	35192	21.41	1.6
51	35342	21.51	1.6
51	35492	21.61	1.6
51	35642	21.71	1.6
51	35792	21.81	1.6
51	35942	21.91	1.6
51	36096	22.01	1.6
51	36246	22.11	1.6
51	36396	22.21	1.6
51	36546	22.31	1.6
51	36696	22.41	1.6
51	36846	22.51	1.6
51	36996	22.61	1.6
51	37146	22.71	1.6
51	37296	22.81	1.6
51	37446	22.91	1.6
51	37600	23.01	1.6
51	37750	23.11	1.6
51	37900	23.21	1.6
51	38050	23.31	1.6
51	38200	23.41	1.6
51	38350	23.51	1.6
51	38500	23.61	1.6
51	38650	23.71	1.6
51	38800	23.81	1.6
51	38950	23.91	1.6
51	39104	24.01	1.6
51	39254	24.11	1.6
51	39404	24.21	1.6
51	39554	24.31	1.6
51	39704	24.41	1.6
51	39854	24.51	1.6
51	40004	24.61	1.6
51	40154	24.71	1.6
51	40304	24.81	1.6
51	40454	24.91	1.6
51	40608	25.01	1.6
51	40758	25.11	1.6
51	40908	25.21	1.6
51	41058	25.31	1.6
51	41208	25.41	1.6
51	41358	25.51	1.6
51	41508	25.61	1.6
51	41658	25.71	1.6
51	41808	25.81	1.6
51	41958	25.91	1.6
51	42112	26.01	1.6
51	42262	26.11	1.6
51	42412	26.21	1.6
51	42562	26.31	1.6
51	42712	26.41	1.6
51	42862	26.51	1.6
51	43012	26.61	1.6
51	43163	26.71	1.6
51	43313	26.81	1.6
51	43463	26.91	1.6
51	43617	27.01	1.6
51	43767	27.11	1.6
51	43917	27.21	1.6
51	44067	27.31	1.6
51	44217	27.41	1.6
51	44367	27.51	1.6
51	44517	27.61	1.6
51	44667	27.71	1.6
51	44817	27.81	1.6
51	44967	27.91	1.6
51	45121	28.01	1.6
51	45271	28.11	1.6
51	45421	28.21	1.6
51	45571	28.31	1.6
51	45721	28.41	1.6
51	45871	28.51	1.6
51	46021	28.61	1.6
51	46171	28.71	1.6
51	46321	28.81	1.6
51	46471	28.91	1.6
51	46625	29.01	1.6
51	46775	29.11	1.6
51	46925	29.21	1.6
51	47075	29.31	1.6
51	47225	29.41	1.6
51	47375	29.51	1.6
51	47525	29.61	1.6
51	47675	29.71	1.6
51	47825	29.81	1.6
51	47975	29.91	1.6
51	48129	30.01	1.6
51	48279	30.11	1.6
51	48429	30.21	1.6
51	48579	30.31	1.6
51	48729	30.41	1.6
51	48879	30.51	1.6
51	49029	30.61	1.6
51	49179	30.71	1.6
51	49329	30.81	1.6
51	49479	30.91	1.6
51	49633	31.01	1.6
51	49783	31.11	1.6
51	49933	31.21	1.6
51	50083	31.31	1.6
51	50233	31.41	1.6
51	50383	31.51	1.6
51	50533	31.61	1.6
51	50683	31.71	1.6
51	50833	31.81	1.6
51	50983	31.91	1.6
51	51137	32.01	1.6
51	51287	32.11	1.6
51	51437	32.21	1.6
51	51587	32.31	1.6
51	51737	32.41	1.6
51	51887	32.51	1.6
51	52037	32.61	1.6
51	52187	32.71	1.6
51	52337	32.81	1.6
51	52487	32.91	1.6
51	52641	33.01	1.6
51	52791	33.11	1.6
51	52941	33.21	1.6
51	53091	33.31	1.6
51	53241	33.41	1.6
51	53391	33.51	1.6
51	53541	33.61	1.6
51	53691	33.71	1.6
51	53841	33.81	1.6
51	53991	33.91	1.6
51	54145	34.01	1.6
51	54295	34.11	1.6
51	54445	34.21	1.6
51	54595	34.31	1.6
51	54745	34.41	1.6
50	26	0.21	494.7
50	176	0.31	493.256
50	326	0.41	491.812
50	476	0.51	490.368
50	626	0.61	488.924
50	776	0.71	487.48
50	926	0.81	486.036
50	1076	0.91	484.592
50	1230	1.01	483.148
50	1381	1.11	481.704
50	1532	1.21	480.259
50	1683	1.31	478.815
50	2046	1.41	477.371
50	2196	1.51	475.926
50	2346	1.61	474.482
50	2496	1.71	473.038
50	2646	1.81	471.593
50	2796	1.91	470.149
50	2950	2.01	468.705
50	3100	2.11	467.26
50	3250	2.21	465.816
50	3400	2.31	464.371
50	3763	2.41	462.927
50	3914	2.51	461.483
50	4064	2.61	460.038
50	4214	2.71	458.594
50	4364	2.81	457.149
50	4514	2.91	455.705
50	4668	3.01	454.26
50	4818	3.11	452.816
50	4968	3.21	451.371
50	5118	3.31	449.927
50	5269	3.41	448.482
50	5676	3.51	447.038
50	5826	3.61	445.594
50	5976	3.71	444.149
50	6126	3.81	442.705
50	6276	3.91	441.26
50	6430	4.01	439.816
50	6580	4.11	438.371
50	6730	4.21	436.927
50	6880	4.31	435.482
50	7030	4.41	434.038
50	7393	4.51	432.593
50	7544	4.61	431.149
50	7694	4.71	429.705
50	7844	4.81	428.26
50	7994	4.91	426.816
50	8148	5.01	425.371
50	8298	5.11	423.927
50	8448	5.21	422.482
50	8598	5.31	421.038
50	8748	5.41	419.593
50	8899	5.51	418.149
50	9262	5.61	416.705
50	9412	5.71	415.26
50	9562	5.81	413.816
50	9712	5.91	412.371
50	9866	6.01	410.927
50	10016	6.11	409.482
50	10166	6.21	408.038
50	10316	6.31	406.594
50	10466	6.41	405.149
50	10616	6.51	403.705
50	11023	6.61	402.26
50	11174	6.71	400.816
50	11324	6.81	399.371
50	11474	6.91	397.927
50	11628	7.01	396.482
50	11778	7.11	395.038
50	11928	7.21	393.594
50	12078	7.31	392.149
50	12228	7.41	390.705
50	12378	7.51	389.26
50	12529	7.61	387.816
50	12892	7.71	386.371
50	13042	7.81	384.927
50	13192	7.91	383.483
50	13346	8.01	382.038
50	13496	8.11	380.594
50	13646	8.21	379.149
50	13796	8.31	377.705
50	13946	8.41	376.26
50	14096	8.51	374.816
50	14246	8.61	373.371
50	14609	8.71	371.927
50	14760	8.81	370.483
50	14910	8.91	369.038
50	15064	9.01	367.594
50	15214	9.11	366.149
50	15364	9.21	364.705
50	15514	9.31	363.26
50	15664	9.41	361.816
50	15814	9.51	360.371
50	15964	9.61	358.927
50	16115	9.71	357.483
50	16522	9.81	356.038
50	16672	9.91	354.594
50	16826	10.01	353.149
50	16976	10.11	351.705
50	17126	10.21	350.26
50	17276	10.31	348.816
50	17426	10.41	347.372
50	17576	10.51	345.927
50	17726	10.61	344.483
50	17876	10.71	343.038
50	18239	10.81	341.594
50	18390	10.91	340.149
50	18544	11.01	338.705
50	18694	11.11	337.26
50	18844	11.21	335.816
50	18994	11.31	334.372
50	19144	11.41	332.927
50	19294	11.51	331.483
50	19444	11.61	330.038
50	19594	11.71	328.594
50	19745	11.81	327.149
50	20108	11.91	325.705
50	20262	12.01	324.26
50	20412	12.11	322.816
50	20562	12.21	321.372
50	20712	12.31	319.927
50	20862	12.41	318.483
50	21012	12.51	317.038
50	21162	12.61	315.594
50	21312	12.71	314.149
50	21462	12.81	312.705
50	21913	12.91	311.261
50	22068	13.01	309.816
50	22218	13.11	308.372
50	22368	13.21	306.927
50	22518	13.31	305.483
50	22668	13.41	304.038
50	22818	13.51	302.594
50	22968	13.61	301.149
50	23118	13.71	299.705
50	23268	13.81	298.261
50	23419	13.91	296.816
50	23806	14.01	295.372
50	23956	14.11	293.927
50	24106	14.21	292.483
50	24256	14.31	291.038
50	24406	14.41	289.594
50	24556	14.51	288.149
50	24706	14.61	286.705
50	24856	14.71	285.261
50	25006	14.81	283.816
50	25156	14.91	282.372
50	25567	15.01	280.927
50	25718	15.11	279.483
50	25868	15.21	278.038
50	26018	15.31	276.594
50	26168	15.41	275.15
50	26318	15.51	273.705
50	26468	15.61	272.261
50	26618	15.71	270.816
50	26768	15.81	269.372
50	26918	15.91	267.927
50	27072	16.01	266.483
50	27222	16.11	265.038
50	27372	16.21	263.594
50	27522	16.31	262.15
50	27672	16.41	260.705
50	27822	16.51	259.261
50	27972	16.61	257.816
50	28122	16.71	256.372
50	28272	16.81	254.927
50	28422	16.91	253.483
50	28576	17.01	252.038
50	28726	17.11	250.594
50	28876	17.21	249.15
50	29026	17.31	247.705
50	29176	17.41	246.261
50	29326	17.51	244.816
50	29476	17.61	243.372
50	29626	17.71	241.927
50	29776	17.81	240.483
50	29926	17.91	239.039
50	30080	18.01	237.594
50	30230	18.11	236.15
50	30380	18.21	234.705
50	30530	18.31	233.261
50	30680	18.41	231.816
50	30830	18.51	230.372
50	30980	18.61	228.927
50	31130	18.71	227.483
50	31280	18.81	226.039
50	31430	18.91	224.594
50	31584	19.01	223.15
50	31734	19.11	221.705
50	31884	19.21	220.261
50	32034	19.31	218.816
50	32184	19.41	217.372
50	32334	19.51	215.927
50	32484	19.61	214.483
50	32634	19.71	213.039
50	32784	19.81	211.594
50	32934	19.91	210.15
50	33088	20.01	208.705
50	33238	20.11	207.261
50	33388	20.21	205.816
50	33538	20.31	204.372
50	33688	20.41	202.928
50	33838	20.51	201.483
50	33988	20.61	200.039
50	34138	20.71	198.594
50	34288	20.81	197.15
50	34438	20.91	195.705
50	34592	21.01	194.261
50	34742	21.11	192.816
50	34892	21.21	191.372
50	35042	21.31	189.928
50	35192	21.41	188.483
50	35342	21.51	187.039
50	35492	21.61	185.594
50	35642	21.71	184.15
50	35792	21.81	182.705
50	35942	21.91	181.261
50	36096	22.01	179.816
50	36246	22.11	178.372
50	36396	22.21	176.928
50	36546	22.31	175.483
50	36696	22.41	174.039
50	36846	22.51	172.594
50	36996	22.61	171.15
50	37146	22.71	169.705
50	37296	22.81	168.261
50	37446	22.91	166.817
50	37600	23.01	165.372
50	37750	23.11	163.928
50	37900	23.21	162.483
50	38050	23.31	161.039
50	38200	23.41	159.594
50	38350	23.51	158.15
50	38500	23.61	156.705
50	38650	23.71	155.261
50	38800	23.81	153.817
50	38950	23.91	152.372
50	39104	24.01	150.928
50	39254	24.11	149.483
50	39404	24.21	148.039
50	39554	24.31	146.594
50	39704	24.41	145.15
50	39854	24.51	143.705
50	40004	24.61	142.261
50	40154	24.71	140.817
50	40304	24.81	139.372
50	40454	24.91	137.928
50	40608	25.01	136.483
50	40758	25.11	135.039
50	40908	25.21	133.594
50	41058	25.31	132.15
50	41208	25.41	130.706
50	41358	25.51	129.261
50	41508	25.61	127.817
50	41658	25.71	126.372
50	41808	25.81	124.928
50	41958	25.91	123.483
50	42112	26.01	122.039
50	42262	26.11	120.594
50	42412	26.21	119.15
50	42562	26.31	117.706
50	42712	26.41	116.261
50	42862	26.51	114.817
50	43012	26.61	113.372
50	43163	26.71	111.928
50	43313	26.81	110.483
50	43463	26.91	109.039
50	43617	27.01	107.594
50	43767	27.11	106.15
50	43917	27.21	104.706
50	44067	27.31	103.261
50	44217	27.41	101.817
50	44367	27.51	100.372
50	44517	27.61	98.9278
50	44667	27.71	97.4834
50	44817	27.81	96.0389
50	44967	27.91	94.5945
50	45121	28.01	93.1501
50	45271	28.11	91.7056
50	45421	28.21	90.2612
50	45571	28.31	88.8167
50	45721	28.41	87.3723
50	45871	28.51	85.9279
50	46021	28.61	84.4834
50	46171	28.71	83.039
50	46321	28.81	81.5945
50	46471	28.91	80.1501
50	46625	29.01	78.7057
50	46775	29.11	77.2612
50	46925	29.21	75.8168
50	47075	29.31	74.3723
50	47225	29.41	72.9279
50	47375	29.51	71.4835
50	47525	29.61	70.039
50	47675	29.71	68.5946
50	47825	29.81	67.1501
50	47975	29.91	65.7057
50	48129	30.01	64.2613
50	48279	30.11	62.8168
50	48429	30.21	61.3724
50	48579	30.31	59.9279
50	48729	30.41	58.4835
50	48879	30.51	57.0391
50	49029	30.61	55.5946
50	49179	30.71	54.1502
50	49329	30.81	52.7057
50	49479	30.91	51.2613
50	49633	31.01	49.8169
50	49783	31.11	48.3724
50	49933	31.21	46.928
50	50083	31.31	45.4835
50	50233	31.41	44.0391
50	50383	31.51	42.5947
50	50533	31.61	41.1502
50	50683	31.71	39.7058
50	50833	31.81	38.2613
50	50983	31.91	36.8169
50	51137	32.01	35.3725
50	51287	32.11	33.928
50	51437	32.21	32.4836
50	51587	32.31	31.0391
50	51737	32.41	29.5947
50	51887	32.51	28.1503
50	52037	32.61	26.7058
50	52187	32.71	25.2614
50	52337	32.81	23.8169
50	52487	32.91	22.3725
50	52641	33.01	20.9281
50	52791	33.11	19.4836
50	52941	33.21	18.0392
50	53091	33.31	16.5947
50	53241	33.41	15.1503
50	53391	33.51	13.7059
50	53541	33.61	12.2614
50	53691	33.71	10.817
50	53841	33.81	9.37254
50	53991	33.91	7.9281
50	54145	34.01	6.48366
50	54295	34.11	5.03922
50	54445	34.21	3.59478
50	54595	34.31	2.15034
50	54745	34.41	0.705902
49	26	0.21	14.44
49	176	0.31	14.4401
49	326	0.41	14.4403
49	476	0.51	14.4405
49	626	0.61	14.4408
49	776	0.71	14.441
49	926	0.81	14.4413
49	1076	0.91	14.4416
49	1230	1.01	14.4419
49	1381	1.11	14.4421
49	1532	1.21	14.4424
49	1683	1.31	14.4427
49	2046	1.41	14.4429
49	2196	1.51	14.4431
49	2346	1.61	14.4433
49	2496	1.71	14.4435
49	2646	1.81	14.4437
49	2796	1.91	14.4438
49	2950	2.01	14.444
49	3100	2.11	14.4441
49	3250	2.21	14.4442
49	3400	2.31	14.4443
49	3763	2.41	14.4444
49	3914	2.51	14.4444
49	4064	2.61	14.4445
49	4214	2.71	14.4445
49	4364	2.81	14.4445
49	4514	2.91	14.4446
49	4668	3.01	14.4446
49	4818	3.11	14.4446
49	4968	3.21	14.4446
49	5118	3.31	14.4446
49	5269	3.41	14.4446
49	5676	3.51	14.4446
49	5826	3.61	14.4446
49	5976	3.71	14.4446
49	6126	3.81	14.4446
49	6276	3.91	14.4445
49	6430	4.01	14.4445
49	6580	4.11	14.4445
49	6730	4.21	14.4445
49	6880	4.31	14.4445
49	7030	4.41	14.4445
49	7393	4.51	14.4445
49	7544	4.61	14.4445
49	7694	4.71	14.4445
49	7844	4.81	14.4444
49	7994	4.91	14.4444
49	8148	5.01	14.4444
49	8298	5.11	14.4444
49	8448	5.21	14.4444
49	8598	5.31	14.4444
49	8748	5.41	14.4444
49	8899	5.51	14.4444
49	9262	5.61	14.4444
49	9412	5.71	14.4444
49	9562	5.81	14.4444
49	9712	5.91	14.4444
49	9866	6.01	14.4444
49	10016	6.11	14.4444
49	10166	6.21	14.4444
49	10316	6.31	14.4444
49	10466	6.41	14.4444
49	10616	6.51	14.4444
49	11023	6.61	14.4444
49	11174	6.71	14.4444
49	11324	6.81	14.4444
49	11474	6.91	14.4444
49	11628	7.01	14.4444
49	11778	7.11	14.4444
49	11928	7.21	14.4444
49	12078	7.31	14.4444
49	12228	7.41	14.4444
49	12378	7.51	14.4444
49	12529	7.61	14.4444
49	12892	7.71	14.4444
49	13042	7.81	14.4444
49	13192	7.91	14.4444
49	13346	8.01	14.4444
49	13496	8.11	14.4444
49	13646	8.21	14.4444
49	13796	8.31	14.4444
49	13946	8.41	14.4444
49	14096	8.51	14.4444
49	14246	8.61	14.4444
49	14609	8.71	14.4444
49	14760	8.81	14.4444
49	14910	8.91	14.4444
49	15064	9.01	14.4444
49	15214	9.11	14.4444
49	15364	9.21	14.4444
49	15514	9.31	14.4444
49	15664	9.41	14.4444
49	15814	9.51	14.4444
49	15964	9.61	14.4444
49	16115	9.71	14.4444
49	16522	9.81	14.4444
49	16672	9.91	14.4444
49	16826	10.01	14.4444
49	16976	10.11	14.4444
49	17126	10.21	14.4444
49	17276	10.31	14.4444
49	17426	10.41	14.4444
49	17576	10.51	14.4444
49	17726	10.61	14.4444
49	17876	10.71	14.4444
49	18239	10.81	14.4444
49	18390	10.91	14.4444
49	18544	11.01	14.4444
49	18694	11.11	14.4444
49	18844	11.21	14.4444
49	18994	11.31	14.4444
49	19144	11.41	14.4444
49	19294	11.51	14.4444
49	19444	11.61	14.4444
49	19594	11.71	14.4444
49	19745	11.81	14.4444
49	20108	11.91	14.4444
49	20262	12.01	14.4444
49	20412	12.11	14.4444
49	20562	12.21	14.4444
49	20712	12.31	14.4444
49	20862	12.41	14.4444
49	21012	12.51	14.4444
49	21162	12.61	14.4444
49	21312	12.71	14.4444
49	21462	12.81	14.4444
49	21913	12.91	14.4444
49	22068	13.01	14.4444
49	22218	13.11	14.4444
49	22368	13.21	14.4444
49	22518	13.31	14.4444
49	22668	13.41	14.4444
49	22818	13.51	14.4444
49	22968	13.61	14.4444
49	23118	13.71	14.4444
49	23268	13.81	14.4444
49	23419	13.91	14.4444
49	23806	14.01	14.4444
49	23956	14.11	14.4444
49	24106	14.21	14.4444
49	24256	14.31	14.4444
49	24406	14.41	14.4444
49	24556	14.51	14.4444
49	24706	14.61	14.4444
49	24856	14.71	14.4444
49	25006	14.81	14.4444
49	25156	14.91	14.4444
49	25567	15.01	14.4444
49	25718	15.11	14.4444
49	25868	15.21	14.4444
49	26018	15.31	14.4444
49	26168	15.41	14.4444
49	26318	15.51	14.4444
49	26468	15.61	14.4444
49	26618	15.71	14.4444
49	26768	15.81	14.4444
49	26918	15.91	14.4444
49	27072	16.01	14.4444
49	27222	16.11	14.4444
49	27372	16.21	14.4444
49	27522	16.31	14.4444
49	27672	16.41	14.4444
49	27822	16.51	14.4444
49	27972	16.61	14.4444
49	28122	16.71	14.4444
49	28272	16.81	14.4444
49	28422	16.91	14.4444
49	28576	17.01	14.4444
49	28726	17.11	14.4444
49	28876	17.21	14.4444
49	29026	17.31	14.4444
49	29176	17.41	14.4444
49	29326	17.51	14.4444
49	29476	17.61	14.4444
49	29626	17.71	14.4444
49	29776	17.81	14.4444
49	29926	17.91	14.4444
49	30080	18.01	14.4444
49	30230	18.11	14.4444
49	30380	18.21	14.4444
49	30530	18.31	14.4444
49	30680	18.41	14.4444
49	30830	18.51	14.4444
49	30980	18.61	14.4444
49	31130	18.71	14.4444
49	31280	18.81	14.4444
49	31430	18.91	14.4444
49	31584	19.01	14.4444
49	31734	19.11	14.4444
49	31884	19.21	14.4444
49	32034	19.31	14.4444
49	32184	19.41	14.4444
49	32334	19.51	14.4444
49	32484	19.61	14.4444
49	32634	19.71	14.4444
49	32784	19.81	14.4444
49	32934	19.91	14.4444
49	33088	20.01	14.4444
49	33238	20.11	14.4444
49	33388	20.21	14.4444
49	33538	20.31	14.4444
49	33688	20.41	14.4444
49	33838	20.51	14.4444
49	33988	20.61	14.4444
49	34138	20.71	14.4444
49	34288	20.81	14.4444
49	34438	20.91	14.4444
49	34592	21.01	14.4444
49	34742	21.11	14.4444
49	34892	21.21	14.4444
49	35042	21.31	14.4444
49	35192	21.41	14.4444
49	35342	21.51	14.4444
49	35492	21.61	14.4444
49	35642	21.71	14.4444
49	35792	21.81	14.4444
49	35942	21.91	14.4444
49	36096	22.01	14.4444
49	36246	22.11	14.4444
49	36396	22.21	14.4444
49	36546	22.31	14.4444
49	36696	22.41	14.4444
49	36846	22.51	14.4444
49	36996	22.61	14.4444
49	37146	22.71	14.4444
49	37296	22.81	14.4444
49	37446	22.91	14.4444
49	37600	23.01	14.4444
49	37750	23.11	14.4444
49	37900	23.21	14.4444
49	38050	23.31	14.4444
49	38200	23.41	14.4444
49	38350	23.51	14.4444
49	38500	23.61	14.4444
49	38650	23.71	14.4444
49	38800	23.81	14.4444
49	38950	23.91	14.4444
49	39104	24.01	14.4444
49	39254	24.11	14.4444
49	39404	24.21	14.4444
49	39554	24.31	14.4444
49	39704	24.41	14.4444
49	39854	24.51	14.4444
49	40004	24.61	14.4444
49	40154	24.71	14.4444
49	40304	24.81	14.4444
49	40454	24.91	14.4444
49	40608	25.01	14.4444
49	40758	25.11	14.4444
49	40908	25.21	14.4444
49	41058	25.31	14.4444
49	41208	25.41	14.4444
49	41358	25.51	14.4444
49	41508	25.61	14.4444
49	41658	25.71	14.4444
49	41808	25.81	14.4444
49	41958	25.91	14.4444
49	42112	26.01	14.4444
49	42262	26.11	14.4444
49	42412	26.21	14.4444
49	42562	26.31	14.4444
49	42712	26.41	14.4444
49	42862	26.51	14.4444
49	43012	26.61	14.4444
49	43163	26.71	14.4444
49	43313	26.81	14.4444
49	43463	26.91	14.4444
49	43617	27.01	14.4444
49	43767	27.11	14.4444
49	43917	27.21	14.4444
49	44067	27.31	14.4444
49	44217	27.41	14.4444
49	44367	27.51	14.4444
49	44517	27.61	14.4444
49	44667	27.71	14.4444
49	44817	27.81	14.4444
49	44967	27.91	14.4444
49	45121	28.01	14.4444
49	45271	28.11	14.4444
49	45421	28.21	14.4444
49	45571	28.31	14.4444
49	45721	28.41	14.4444
49	45871	28.51	14.4444
49	46021	28.61	14.4444
49	46171	28.71	14.4444
49	46321	28.81	14.4444
49	46471	28.91	14.4444
49	46625	29.01	14.4444
49	46775	29.11	14.4444
49	46925	29.21	14.4444
49	47075	29.31	14.4444
49	47225	29.41	14.4444
49	47375	29.51	14.4444
49	47525	29.61	14.4444
49	47675	29.71	14.4444
49	47825	29.81	14.4444
49	47975	29.91	14.4444
49	48129	30.01	14.4444
49	48279	30.11	14.4444
49	48429	30.21	14.4444
49	48579	30.31	14.4444
49	48729	30.41	14.4444
49	48879	30.51	14.4444
49	49029	30.61	14.4444
49	49179	30.71	14.4444
49	49329	30.81	14.4444
49	49479	30.91	14.4444
49	49633	31.01	14.4444
49	49783	31.11	14.4444
49	49933	31.21	14.4444
49	50083	31.31	14.4444
49	50233	31.41	14.4444
49	50383	31.51	14.4444
49	50533	31.61	14.4444
49	50683	31.71	14.4444
49	50833	31.81	14.4444
49	50983	31.91	14.4444
49	51137	32.01	14.4444
49	51287	32.11	14.4444
49	51437	32.21	14.4444
49	51587	32.31	14.4444
49	51737	32.41	14.4444
49	51887	32.51	14.4444
49	52037	32.61	14.4444
49	52187	32.71	14.4444
49	52337	32.81	14.4444
49	52487	32.91	14.4444
49	52641	33.01	14.4444
49	52791	33.11	14.4444
49	52941	33.21	14.4444
49	53091	33.31	14.4444
49	53241	33.41	14.4444
49	53391	33.51	14.4444
49	53541	33.61	14.4444
49	53691	33.71	14.4444
49	53841	33.81	14.4444
49	53991	33.91	14.4444
49	54145	34.01	14.4444
49	54295	34.11	14.4444
49	54445	34.21	14.4444
49	54595	34.31	14.4444
49	54745	34.41	14.4444
45	26	0.21	0
45	176	0.31	0
45	326	0.41	0
45	476	0.51	0
45	626	0.61	0
45	776	0.71	0
45	926	0.81	0
45	1076	0.91	0
45	1230	1.01	0
45	1381	1.11	0
45	1532	1.21	0
45	1683	1.31	0
45	2046	1.41	0
45	2196	1.51	0
45	2346	1.61	0
45	2496	1.71	0
45	2646	1.81	0
45	2796	1.91	0
45	2950	2.01	0
45	3100	2.11	0
45	3250	2.21	0
45	3400	2.31	0
45	3763	2.41	0
45	3914	2.51	0
45	4064	2.61	0
45	4214	2.71	0
45	4364	2.81	0
45	4514	2.91	0
45	4668	3.01	0
45	4818	3.11	0
45	4968	3.21	0
45	5118	3.31	0
45	5269	3.41	0
45	5676	3.51	0
45	5826	3.61	0
45	5976	3.71	0
45	6126	3.81	0
45	6276	3.91	0
45	6430	4.01	0
45	6580	4.11	0
45	6730	4.21	0
45	6880	4.31	0
45	7030	4.41	0
45	7393	4.51	0
45	7544	4.61	0
45	7694	4.71	0
45	7844	4.81	0
45	7994	4.91	0
45	8148	5.01	0
45	8298	5.11	0
45	8448	5.21	0
45	8598	5.31	0
45	8748	5.41	0
45	8899	5.51	0
45	9262	5.61	0
45	9412	5.71	0
45	9562	5.81	0
45	9712	5.91	0
45	9866	6.01	0
45	10016	6.11	0
45	10166	6.21	0
45	10316	6.31	0
45	10466	6.41	0
45	10616	6.51	0
45	11023	6.61	0
45	11174	6.71	0
45	11324	6.81	0
45	11474	6.91	0
45	11628	7.01	0
45	11778	7.11	0
45	11928	7.21	0
45	12078	7.31	0
45	12228	7.41	0
45	12378	7.51	0
45	12529	7.61	0
45	12892	7.71	0
45	13042	7.81	0
45	13192	7.91	0
45	13346	8.01	0
45	13496	8.11	0
45	13646	8.21	0
45	13796	8.31	0
45	13946	8.41	0
45	14096	8.51	0
45	14246	8.61	0
45	14609	8.71	0
45	14760	8.81	0
45	14910	8.91	0
45	15064	9.01	0
45	15214	9.11	0
45	15364	9.21	0
45	15514	9.31	0
45	15664	9.41	0
45	15814	9.51	0
45	15964	9.61	0
45	16115	9.71	0
45	16522	9.81	0
45	16672	9.91	0
45	16826	10.01	0
45	16976	10.11	0
45	17126	10.21	0
45	17276	10.31	0
45	17426	10.41	0
45	17576	10.51	0
45	17726	10.61	0
45	17876	10.71	0
45	18239	10.81	0
45	18390	10.91	0
45	18544	11.01	0
45	18694	11.11	0
45	18844	11.21	0
45	18994	11.31	0
45	19144	11.41	0
45	19294	11.51	0
45	19444	11.61	0
45	19594	11.71	0
45	19745	11.81	0
45	20108	11.91	0
45	20262	12.01	0
45	20412	12.11	0
45	20562	12.21	0
45	20712	12.31	0
45	20862	12.41	0
45	21012	12.51	0
45	21162	12.61	0
45	21312	12.71	0
45	21462	12.81	0
45	21913	12.91	0
45	22068	13.01	0
45	22218	13.11	0
45	22368	13.21	0
45	22518	13.31	0
45	22668	13.41	0
45	22818	13.51	0
45	22968	13.61	0
45	23118	13.71	0
45	23268	13.81	0
45	23419	13.91	0
45	23806	14.01	0
45	23956	14.11	0
45	24106	14.21	0
45	24256	14.31	0
45	24406	14.41	0
45	24556	14.51	0
45	24706	14.61	0
45	24856	14.71	0
45	25006	14.81	0
45	25156	14.91	0
45	25567	15.01	0
45	25718	15.11	0
45	25868	15.21	0
45	26018	15.31	0
45	26168	15.41	0
45	26318	15.51	0
45	26468	15.61	0
45	26618	15.71	0
45	26768	15.81	0
45	26918	15.91	0
45	27072	16.01	0
45	27222	16.11	0
45	27372	16.21	0
45	27522	16.31	0
45	27672	16.41	0
45	27822	16.51	0
45	27972	16.61	0
45	28122	16.71	0
45	28272	16.81	0
45	28422	16.91	0
45	28576	17.01	0
45	28726	17.11	0
45	28876	17.21	0
45	29026	17.31	0
45	29176	17.41	0
45	29326	17.51	0
45	29476	17.61	0
45	29626	17.71	0
45	29776	17.81	0
45	29926	17.91	0
45	30080	18.01	0
45	30230	18.11	0
45	30380	18.21	0
45	30530	18.31	0
45	30680	18.41	0
45	30830	18.51	0
45	30980	18.61	0
45	31130	18.71	0
45	31280	18.81	0
45	31430	18.91	0
45	31584	19.01	0
45	31734	19.11	0
45	31884	19.21	0
45	32034	19.31	0
45	32184	19.41	0
45	32334	19.51	0
45	32484	19.61	0
45	32634	19.71	0
45	32784	19.81	0
45	32934	19.91	0
45	33088	20.01	0
45	33238	20.11	0
45	33388	20.21	0
45	33538	20.31	0
45	33688	20.41	0
45	33838	20.51	0
45	33988	20.61	0
45	34138	20.71	0
45	34288	20.81	0
45	34438	20.91	0
45	34592	21.01	0
45	34742	21.11	0
45	34892	21.21	0
45	35042	21.31	0
45	35192	21.41	0
45	35342	21.51	0
45	35492	21.61	0
45	35642	21.71	0
45	35792	21.81	0
45	35942	21.91	0
45	36096	22.01	0
45	36246	22.11	0
45	36396	22.21	0
45	36546	22.31	0
45	36696	22.41	0
45	36846	22.51	0
45	36996	22.61	0
45	37146	22.71	0
45	37296	22.81	0
45	37446	22.91	0
45	37600	23.01	0
45	37750	23.11	0
45	37900	23.21	0
45	38050	23.31	0
45	38200	23.41	0
45	38350	23.51	0
45	38500	23.61	0
45	38650	23.71	0
45	38800	23.81	0
45	38950	23.91	0
45	39104	24.01	0
45	39254	24.11	0
45	39404	24.21	0
45	39554	24.31	0
45	39704	24.41	0
45	39854	24.51	0
45	40004	24.61	0
45	40154	24.71	0
45	40304	24.81	0
45	40454	24.91	0
45	40608	25.01	0
45	40758	25.11	0
45	40908	25.21	0
45	41058	25.31	0
45	41208	25.41	0
45	41358	25.51	0
45	41508	25.61	0
45	41658	25.71	0
45	41808	25.81	0
45	41958	25.91	0
45	42112	26.01	0
45	42262	26.11	0
45	42412	26.21	0
45	42562	26.31	0
45	42712	26.41	0
45	42862	26.51	0
45	43012	26.61	0
45	43163	26.71	0
45	43313	26.81	0
45	43463	26.91	0
45	43617	27.01	0
45	43767	27.11	0
45	43917	27.21	0
45	44067	27.31	0
45	44217	27.41	0
45	44367	27.51	0
45	44517	27.61	0
45	44667	27.71	0
45	44817	27.81	0
45	44967	27.91	0
45	45121	28.01	0
45	45271	28.11	0
45	45421	28.21	0
45	45571	28.31	0
45	45721	28.41	0
45	45871	28.51	0
45	46021	28.61	0
45	46171	28.71	0
45	46321	28.81	0
45	46471	28.91	0
45	46625	29.01	0
45	46775	29.11	0
45	46925	29.21	0
45	47075	29.31	0
45	47225	29.41	0
45	47375	29.51	0
45	47525	29.61	0
45	47675	29.71	0
45	47825	29.81	0
45	47975	29.91	0
45	48129	30.01	0
45	48279	30.11	0
45	48429	30.21	0
45	48579	30.31	0
45	48729	30.41	0
45	48879	30.51	0
45	49029	30.61	0
45	49179	30.71	0
45	49329	30.81	0
45	49479	30.91	0
45	49633	31.01	0
45	49783	31.11	0
45	49933	31.21	0
45	50083	31.31	0
45	50233	31.41	0
45	50383	31.51	0
45	50533	31.61	0
45	50683	31.71	0
45	50833	31.81	0
45	50983	31.91	0
45	51137	32.01	0
45	51287	32.11	0
45	51437	32.21	0
45	51587	32.31	0
45	51737	32.41	0
45	51887	32.51	0
45	52037	32.61	0
45	52187	32.71	0
45	52337	32.81	0
45	52487	32.91	0
45	52641	33.01	0
45	52791	33.11	0
45	52941	33.21	0
45	53091	33.31	0
45	53241	33.41	0
45	53391	33.51	0
45	53541	33.61	0
45	53691	33.71	0
45	53841	33.81	0
45	53991	33.91	0
45	54145	34.01	0
45	54295	34.11	0
45	54445	34.21	0
45	54595	34.31	0
45	54745	34.41	0
44	26	0.21	-1
44	176	0.31	-1
44	326	0.41	-1
44	476	0.51	-1
44	626	0.61	-1
44	776	0.71	-1
44	926	0.81	-1
44	1076	0.91	-1
44	1230	1.01	-1
44	1381	1.11	-1
44	1532	1.21	-1
44	1683	1.31	-1
44	2046	1.41	-1
44	2196	1.51	-1
44	2346	1.61	-1
44	2496	1.71	-1
44	2646	1.81	-1
44	2796	1.91	-1
44	2950	2.01	-1
44	3100	2.11	-1
44	3250	2.21	-1
44	3400	2.31	-1
44	3763	2.41	-1
44	3914	2.51	-1
44	4064	2.61	-1
44	4214	2.71	-1
44	4364	2.81	-1
44	4514	2.91	-1
44	4668	3.01	-1
44	4818	3.11	-1
44	4968	3.21	-1
44	5118	3.31	-1
44	5269	3.41	-1
44	5676	3.51	-1
44	5826	3.61	-1
44	5976	3.71	-1
44	6126	3.81	-1
44	6276	3.91	-1
44	6430	4.01	-1
44	6580	4.11	-1
44	6730	4.21	-1
44	6880	4.31	-1
44	7030	4.41	-1
44	7393	4.51	-1
44	7544	4.61	-1
44	7694	4.71	-1
44	7844	4.81	-1
44	7994	4.91	-1
44	8148	5.01	-1
44	8298	5.11	-1
44	8448	5.21	-1
44	8598	5.31	-1
44	8748	5.41	-1
44	8899	5.51	-1
44	9262	5.61	-1
44	9412	5.71	-1
44	9562	5.81	-1
44	9712	5.91	-1
44	9866	6.01	-1
44	10016	6.11	-1
44	10166	6.21	-1
44	10316	6.31	-1
44	10466	6.41	-1
44	10616	6.51	-1
44	11023	6.61	-1
44	11174	6.71	-1
44	11324	6.81	-1
44	11474	6.91	-1
44	11628	7.01	-1
44	11778	7.11	-1
44	11928	7.21	-1
44	12078	7.31	-1
44	12228	7.41	-1
44	12378	7.51	-1
44	12529	7.61	-1
44	12892	7.71	-1
44	13042	7.81	-1
44	13192	7.91	-1
44	13346	8.01	-1
44	13496	8.11	-1
44	13646	8.21	-1
44	13796	8.31	-1
44	13946	8.41	-1
44	14096	8.51	-1
44	14246	8.61	-1
44	14609	8.71	-1
44	14760	8.81	-1
44	14910	8.91	-1
44	15064	9.01	-1
44	15214	9.11	-1
44	15364	9.21	-1
44	15514	9.31	-1
44	15664	9.41	-1
44	15814	9.51	-1
44	15964	9.61	-1
44	16115	9.71	-1
44	16522	9.81	-1
44	16672	9.91	-1
44	16826	10.01	-1
44	16976	10.11	-1
44	17126	10.21	-1
44	17276	10.31	-1
44	17426	10.41	-1
44	17576	10.51	-1
44	17726	10.61	-1
44	17876	10.71	-1
44	18239	10.81	-1
44	18390	10.91	-1
44	18544	11.01	-1
44	18694	11.11	-1
44	18844	11.21	-1
44	18994	11.31	-1
44	19144	11.41	-1
44	19294	11.51	-1
44	19444	11.61	-1
44	19594	11.71	-1
44	19745	11.81	-1
44	20108	11.91	-1
44	20262	12.01	-1
44	20412	12.11	-1
44	20562	12.21	-1
44	20712	12.31	-1
44	20862	12.41	-1
44	21012	12.51	-1
44	21162	12.61	-1
44	21312	12.71	-1
44	21462	12.81	-1
44	21913	12.91	-1
44	22068	13.01	-1
44	22218	13.11	-1
44	22368	13.21	-1
44	22518	13.31	-1
44	22668	13.41	-1
44	22818	13.51	-1
44	22968	13.61	-1
44	23118	13.71	-1
44	23268	13.81	-1
44	23419	13.91	-1
44	23806	14.01	-1
44	23956	14.11	-1
44	24106	14.21	-1
44	24256	14.31	-1
44	24406	14.41	-1
44	24556	14.51	-1
44	24706	14.61	-1
44	24856	14.71	-1
44	25006	14.81	-1
44	25156	14.91	-1
44	25567	15.01	-1
44	25718	15.11	-1
44	25868	15.21	-1
44	26018	15.31	-1
44	26168	15.41	-1
44	26318	15.51	-1
44	26468	15.61	-1
44	26618	15.71	-1
44	26768	15.81	-1
44	26918	15.91	-1
44	27072	16.01	-1
44	27222	16.11	-1
44	27372	16.21	-1
44	27522	16.31	-1
44	27672	16.41	-1
44	27822	16.51	-1
44	27972	16.61	-1
44	28122	16.71	-1
44	28272	16.81	-1
44	28422	16.91	-1
44	28576	17.01	-1
44	28726	17.11	-1
44	28876	17.21	-1
44	29026	17.31	-1
44	29176	17.41	-1
44	29326	17.51	-1
44	29476	17.61	-1
44	29626	17.71	-1
44	29776	17.81	-1
44	29926	17.91	-1
44	30080	18.01	-1
44	30230	18.11	-1
44	30380	18.21	-1
44	30530	18.31	-1
44	30680	18.41	-1
44	30830	18.51	-1
44	30980	18.61	-1
44	31130	18.71	-1
44	31280	18.81	-1
44	31430	18.91	-1
44	31584	19.01	-1
44	31734	19.11	-1
44	31884	19.21	-1
44	32034	19.31	-1
44	32184	19.41	-1
44	32334	19.51	-1
44	32484	19.61	-1
44	32634	19.71	-1
44	32784	19.81	-1
44	32934	19.91	-1
44	33088	20.01	-1
44	33238	20.11	-1
44	33388	20.21	-1
44	33538	20.31	-1
44	33688	20.41	-1
44	33838	20.51	-1
44	33988	20.61	-1
44	34138	20.71	-1
44	34288	20.81	-1
44	34438	20.91	-1
44	34592	21.01	-1
44	34742	21.11	-1
44	34892	21.21	-1
44	35042	21.31	-1
44	35192	21.41	-1
44	35342	21.51	-1
44	35492	21.61	-1
44	35642	21.71	-1
44	35792	21.81	-1
44	35942	21.91	-1
44	36096	22.01	-1
44	36246	22.11	-1
44	36396	22.21	-1
44	36546	22.31	-1
44	36696	22.41	-1
44	36846	22.51	-1
44	36996	22.61	-1
44	37146	22.71	-1
44	37296	22.81	-1
44	37446	22.91	-1
44	37600	23.01	-1
44	37750	23.11	-1
44	37900	23.21	-1
44	38050	23.31	-1
44	38200	23.41	-1
44	38350	23.51	-1
44	38500	23.61	-1
44	38650	23.71	-1
44	38800	23.81	-1
44	38950	23.91	-1
44	39104	24.01	-1
44	39254	24.11	-1
44	39404	24.21	-1
44	39554	24.31	-1
44	39704	24.41	-1
44	39854	24.51	-1
44	40004	24.61	-1
44	40154	24.71	-1
44	40304	24.81	-1
44	40454	24.91	-1
44	40608	25.01	-1
44	40758	25.11	-1
44	40908	25.21	-1
44	41058	25.31	-1
44	41208	25.41	-1
44	41358	25.51	-1
44	41508	25.61	-1
44	41658	25.71	-1
44	41808	25.81	-1
44	41958	25.91	-1
44	42112	26.01	-1
44	42262	26.11	-1
44	42412	26.21	-1
44	42562	26.31	-1
44	42712	26.41	-1
44	42862	26.51	-1
44	43012	26.61	-1
44	43163	26.71	-1
44	43313	26.81	-1
44	43463	26.91	-1
44	43617	27.01	-1
44	43767	27.11	-1
44	43917	27.21	-1
44	44067	27.31	-1
44	44217	27.41	-1
44	44367	27.51	-1
44	44517	27.61	-1
44	44667	27.71	-1
44	44817	27.81	-1
44	44967	27.91	-1
44	45121	28.01	-1
44	45271	28.11	-1
44	45421	28.21	-1
44	45571	28.31	-1
44	45721	28.41	-1
44	45871	28.51	-1
44	46021	28.61	-1
44	46171	28.71	-1
44	46321	28.81	-1
44	46471	28.91	-1
44	46625	29.01	-1
44	46775	29.11	-1
44	46925	29.21	-1
44	47075	29.31	-1
44	47225	29.41	-1
44	47375	29.51	-1
44	47525	29.61	-1
44	47675	29.71	-1
44	47825	29.81	-1
44	47975	29.91	-1
44	48129	30.01	-1
44	48279	30.11	-1
44	48429	30.21	-1
44	48579	30.31	-1
44	48729	30.41	-1
44	48879	30.51	-1
44	49029	30.61	-1
44	49179	30.71	-1
44	49329	30.81	-1
44	49479	30.91	-1
44	49633	31.01	-1
44	49783	31.11	-1
44	49933	31.21	-1
44	50083	31.31	-1
44	50233	31.41	-1
44	50383	31.51	-1
44	50533	31.61	-1
44	50683	31.71	-1
44	50833	31.81	-1
44	50983	31.91	-1
44	51137	32.01	-1
44	51287	32.11	-1
44	51437	32.21	-1
44	51587	32.31	-1
44	51737	32.41	-1
44	51887	32.51	-1
44	52037	32.61	-1
44	52187	32.71	-1
44	52337	32.81	-1
44	52487	32.91	-1
44	52641	33.01	-1
44	52791	33.11	-1
44	52941	33.21	-1
44	53091	33.31	-1
44	53241	33.41	-1
44	53391	33.51	-1
44	53541	33.61	-1
44	53691	33.71	-1
44	53841	33.81	-1
44	53991	33.91	-1
44	54145	34.01	-1
44	54295	34.11	-1
44	54445	34.21	-1
44	54595	34.31	-1
44	54745	34.41	-1
46	26	0.21	3
46	176	0.31	3
46	326	0.41	3
46	476	0.51	3
46	626	0.61	3
46	776	0.71	3
46	926	0.81	3
46	1076	0.91	3
46	1230	1.01	3
46	1381	1.11	3
46	1532	1.21	3
46	1683	1.31	3
46	2046	1.41	3
46	2196	1.51	3
46	2346	1.61	3
46	2496	1.71	3
46	2646	1.81	3
46	2796	1.91	3
46	2950	2.01	3
46	3100	2.11	3
46	3250	2.21	3
46	3400	2.31	3
46	3763	2.41	3
46	3914	2.51	3
46	4064	2.61	3
46	4214	2.71	3
46	4364	2.81	3
46	4514	2.91	3
46	4668	3.01	3
46	4818	3.11	3
46	4968	3.21	3
46	5118	3.31	3
46	5269	3.41	3
46	5676	3.51	3
46	5826	3.61	3
46	5976	3.71	3
46	6126	3.81	3
46	6276	3.91	3
46	6430	4.01	3
46	6580	4.11	3
46	6730	4.21	3
46	6880	4.31	3
46	7030	4.41	3
46	7393	4.51	3
46	7544	4.61	3
46	7694	4.71	3
46	7844	4.81	3
46	7994	4.91	3
46	8148	5.01	3
46	8298	5.11	3
46	8448	5.21	3
46	8598	5.31	3
46	8748	5.41	3
46	8899	5.51	3
46	9262	5.61	3
46	9412	5.71	3
46	9562	5.81	3
46	9712	5.91	3
46	9866	6.01	3
46	10016	6.11	3
46	10166	6.21	3
46	10316	6.31	3
46	10466	6.41	3
46	10616	6.51	3
46	11023	6.61	3
46	11174	6.71	3
46	11324	6.81	3
46	11474	6.91	3
46	11628	7.01	3
46	11778	7.11	3
46	11928	7.21	3
46	12078	7.31	3
46	12228	7.41	3
46	12378	7.51	3
46	12529	7.61	3
46	12892	7.71	3
46	13042	7.81	3
46	13192	7.91	3
46	13346	8.01	3
46	13496	8.11	3
46	13646	8.21	3
46	13796	8.31	3
46	13946	8.41	3
46	14096	8.51	3
46	14246	8.61	3
46	14609	8.71	3
46	14760	8.81	3
46	14910	8.91	3
46	15064	9.01	3
46	15214	9.11	3
46	15364	9.21	3
46	15514	9.31	3
46	15664	9.41	3
46	15814	9.51	3
46	15964	9.61	3
46	16115	9.71	3
46	16522	9.81	3
46	16672	9.91	3
46	16826	10.01	3
46	16976	10.11	3
46	17126	10.21	3
46	17276	10.31	3
46	17426	10.41	3
46	17576	10.51	3
46	17726	10.61	3
46	17876	10.71	3
46	18239	10.81	3
46	18390	10.91	3
46	18544	11.01	3
46	18694	11.11	3
46	18844	11.21	3
46	18994	11.31	3
46	19144	11.41	3
46	19294	11.51	3
46	19444	11.61	3
46	19594	11.71	3
46	19745	11.81	3
46	20108	11.91	3
46	20262	12.01	3
46	20412	12.11	3
46	20562	12.21	3
46	20712	12.31	3
46	20862	12.41	3
46	21012	12.51	3
46	21162	12.61	3
46	21312	12.71	3
46	21462	12.81	3
46	21913	12.91	3
46	22068	13.01	3
46	22218	13.11	3
46	22368	13.21	3
46	22518	13.31	3
46	22668	13.41	3
46	22818	13.51	3
46	22968	13.61	3
46	23118	13.71	3
46	23268	13.81	3
46	23419	13.91	3
46	23806	14.01	3
46	23956	14.11	3
46	24106	14.21	3
46	24256	14.31	3
46	24406	14.41	3
46	24556	14.51	3
46	24706	14.61	3
46	24856	14.71	3
46	25006	14.81	3
46	25156	14.91	3
46	25567	15.01	3
46	25718	15.11	3
46	25868	15.21	3
46	26018	15.31	3
46	26168	15.41	3
46	26318	15.51	3
46	26468	15.61	3
46	26618	15.71	3
46	26768	15.81	3
46	26918	15.91	3
46	27072	16.01	3
46	27222	16.11	3
46	27372	16.21	3
46	27522	16.31	3
46	27672	16.41	3
46	27822	16.51	3
46	27972	16.61	3
46	28122	16.71	3
46	28272	16.81	3
46	28422	16.91	3
46	28576	17.01	3
46	28726	17.11	3
46	28876	17.21	3
46	29026	17.31	3
46	29176	17.41	3
46	29326	17.51	3
46	29476	17.61	3
46	29626	17.71	3
46	29776	17.81	3
46	29926	17.91	3
46	30080	18.01	3
46	30230	18.11	3
46	30380	18.21	3
46	30530	18.31	3
46	30680	18.41	3
46	30830	18.51	3
46	30980	18.61	3
46	31130	18.71	3
46	31280	18.81	3
46	31430	18.91	3
46	31584	19.01	3
46	31734	19.11	3
46	31884	19.21	3
46	32034	19.31	3
46	32184	19.41	3
46	32334	19.51	3
46	32484	19.61	3
46	32634	19.71	3
46	32784	19.81	3
46	32934	19.91	3
46	33088	20.01	3
46	33238	20.11	3
46	33388	20.21	3
46	33538	20.31	3
46	33688	20.41	3
46	33838	20.51	3
46	33988	20.61	3
46	34138	20.71	3
46	34288	20.81	3
46	34438	20.91	3
46	34592	21.01	3
46	34742	21.11	3
46	34892	21.21	3
46	35042	21.31	3
46	35192	21.41	3
46	35342	21.51	3
46	35492	21.61	3
46	35642	21.71	3
46	35792	21.81	3
46	35942	21.91	3
46	36096	22.01	3
46	36246	22.11	3
46	36396	22.21	3
46	36546	22.31	3
46	36696	22.41	3
46	36846	22.51	3
46	36996	22.61	3
46	37146	22.71	3
46	37296	22.81	3
46	37446	22.91	3
46	37600	23.01	3
46	37750	23.11	3
46	37900	23.21	3
46	38050	23.31	3
46	38200	23.41	3
46	38350	23.51	3
46	38500	23.61	3
46	38650	23.71	3
46	38800	23.81	3
46	38950	23.91	3
46	39104	24.01	3
46	39254	24.11	3
46	39404	24.21	3
46	39554	24.31	3
46	39704	24.41	3
46	39854	24.51	3
46	40004	24.61	3
46	40154	24.71	3
46	40304	24.81	3
46	40454	24.91	3
46	40608	25.01	3
46	40758	25.11	3
46	40908	25.21	3
46	41058	25.31	3
46	41208	25.41	3
46	41358	25.51	3
46	41508	25.61	3
46	41658	25.71	3
46	41808	25.81	3
46	41958	25.91	3
46	42112	26.01	3
46	42262	26.11	3
46	42412	26.21	3
46	42562	26.31	3
46	42712	26.41	3
46	42862	26.51	3
46	43012	26.61	3
46	43163	26.71	3
46	43313	26.81	3
46	43463	26.91	3
46	43617	27.01	3
46	43767	27.11	3
46	43917	27.21	3
46	44067	27.31	3
46	44217	27.41	3
46	44367	27.51	3
46	44517	27.61	3
46	44667	27.71	3
46	44817	27.81	3
46	44967	27.91	3
46	45121	28.01	3
46	45271	28.11	3
46	45421	28.21	3
46	45571	28.31	3
46	45721	28.41	3
46	45871	28.51	3
46	46021	28.61	3
46	46171	28.71	3
46	46321	28.81	3
46	46471	28.91	3
46	46625	29.01	3
46	46775	29.11	3
46	46925	29.21	3
46	47075	29.31	3
46	47225	29.41	3
46	47375	29.51	3
46	47525	29.61	3
46	47675	29.71	3
46	47825	29.81	3
46	47975	29.91	3
46	48129	30.01	3
46	48279	30.11	3
46	48429	30.21	3
46	48579	30.31	3
46	48729	30.41	3
46	48879	30.51	3
46	49029	30.61	3
46	49179	30.71	3
46	49329	30.81	3
46	49479	30.91	3
46	49633	31.01	3
46	49783	31.11	3
46	49933	31.21	3
46	50083	31.31	3
46	50233	31.41	3
46	50383	31.51	3
46	50533	31.61	3
46	50683	31.71	3
46	50833	31.81	3
46	50983	31.91	3
46	51137	32.01	3
46	51287	32.11	3
46	51437	32.21	3
46	51587	32.31	3
46	51737	32.41	3
46	51887	32.51	3
46	52037	32.61	3
46	52187	32.71	3
46	52337	32.81	3
46	52487	32.91	3
46	52641	33.01	3
46	52791	33.11	3
46	52941	33.21	3
46	53091	33.31	3
46	53241	33.41	3
46	53391	33.51	3
46	53541	33.61	3
46	53691	33.71	3
46	53841	33.81	3
46	53991	33.91	3
46	54145	34.01	3
46	54295	34.11	3
46	54445	34.21	3
46	54595	34.31	3
46	54745	34.41	3
67	1191	1	0
67	2911	2	0
67	4629	3	0
67	6391	4	0
67	8109	5	0
67	9827	6	0
67	11589	7	0
67	13307	8	0
67	15025	9	0
67	16787	10	0
67	18505	11	0
67	20223	12	0
67	22029	13	0
67	23767	14	0
67	25528	15	0
67	27033	16	0
67	28537	17	0
67	30041	18	0
67	31545	19	0
67	33049	20	0
67	34553	21	0
67	36057	22	0
67	37561	23	0
67	39065	24	0
67	40569	25	0
67	42073	26	0
67	43578	27	0
67	45082	28	0
67	46586	29	0
67	48090	30	0
67	49594	31	0
67	51098	32	0
67	52602	33	0
67	54106	34	0
66	1191	1	0.009679
66	2911	2	0.013005653442
66	4629	3	0.013005406376
66	6391	4	0.013053176454
66	8109	5	0.013004951748
66	9827	6	0.013004728872
66	11589	7	0.013147507782
66	13307	8	0.013004288762
66	15025	9	0.013004071798
66	16787	10	0.013146856716
66	18505	11	0.01300364333
66	20223	12	0.013003431518
66	22029	13	0.013289221372
66	23767	14	0.013003023968
66	25528	15	0.013051198957
66	27033	16	0.01249
66	28537	17	0.01249
66	30041	18	0.01249
66	31545	19	0.01249
66	33049	20	0.01249
66	34553	21	0.01249
66	36057	22	0.01249
66	37561	23	0.01249
66	39065	24	0.01249
66	40569	25	0.01249
66	42073	26	0.01249
66	43578	27	0.01249
66	45082	28	0.01249
66	46586	29	0.01249
66	48090	30	0.01249
66	49594	31	0.01249
66	51098	32	0.01249
66	52602	33	0.01249
66	54106	34	0.01249
65	1191	1	3
65	2911	2	3
65	4629	3	3
65	6391	4	3
65	8109	5	3
65	9827	6	3
65	11589	7	3
65	13307	8	3
65	15025	9	3
65	16787	10	3
65	18505	11	3
65	20223	12	3
65	22029	13	3
65	23767	14	3
65	25528	15	3
65	27033	16	3
65	28537	17	3
65	30041	18	3
65	31545	19	3
65	33049	20	3
65	34553	21	3
65	36057	22	3
65	37561	23	3
65	39065	24	3
65	40569	25	3
65	42073	26	3
65	43578	27	3
65	45082	28	3
65	46586	29	3
65	48090	30	3
65	49594	31	3
65	51098	32	3
65	52602	33	3
65	54106	34	3
19	15	0.13	2.0853273352073
19	16	0.14	2.085616010237
19	17	0.15	2.0858989433833
19	18	0.16	2.0861761917998
19	19	0.17	2.0864478126326
19	20	0.18	2.0867138630082
19	21	0.19	2.0869744000242
19	22	0.2	2.0872294807358
19	27	0.21	2.087479162149
19	62	0.22	2.0877235012076
19	97	0.23	2.0879625547856
19	98	0.24	2.088196379675
19	99	0.25	2.0884250325788
19	134	0.26	2.0886485701005
19	135	0.27	2.0888670487345
19	136	0.28	2.0890805248584
19	137	0.29	2.0892890547227
19	138	0.3	2.0894926944442
19	177	0.31	2.0896914999963
19	212	0.32	2.0898855272017
19	247	0.33	2.0900748317244
19	248	0.34	2.0902594690604
19	249	0.35	2.0904394945323
19	284	0.36	2.0906149632809
19	285	0.37	2.090785930258
19	286	0.38	2.090952450219
19	287	0.39	2.0911145777171
19	288	0.4	2.0912723670965
19	327	0.41	2.0914258724845
19	362	0.42	2.091575147786
19	397	0.43	2.0917202466786
19	398	0.44	2.0918612226042
19	399	0.45	2.0919981287645
19	434	0.46	2.0921310181157
19	435	0.47	2.0922599433618
19	436	0.48	2.0923849569508
19	437	0.49	2.0925061110679
19	438	0.5	2.0926234576312
19	477	0.51	2.0927370482872
19	512	0.52	2.0928469344046
19	547	0.53	2.0929531670713
19	548	0.54	2.0930557970892
19	549	0.55	2.0931548749693
19	584	0.56	2.0932504509297
19	585	0.57	2.0933425748885
19	586	0.58	2.0934312964619
19	587	0.59	2.0935166649597
19	588	0.6	2.0935987293824
19	627	0.61	2.0936775384165
19	662	0.62	2.0937531404329
19	697	0.63	2.093825583481
19	698	0.64	2.0938949152886
19	699	0.65	2.0939611832565
19	734	0.66	2.0940244344572
19	735	0.67	2.0940847156306
19	736	0.68	2.0941420731828
19	737	0.69	2.094196553183
19	738	0.7	2.0942482013616
19	777	0.71	2.0942970631061
19	812	0.72	2.0943431834614
19	847	0.73	2.094386607126
19	848	0.74	2.0944273784507
19	849	0.75	2.0944655414374
19	884	0.76	2.0945011397349
19	885	0.77	2.0945342166399
19	886	0.78	2.0945648150948
19	887	0.79	2.0945929776858
19	888	0.8	2.0946187466409
19	927	0.81	2.0946421638297
19	962	0.82	2.094663270763
19	997	0.83	2.0946821085886
19	998	0.84	2.0946987180946
19	999	0.85	2.0947131397048
19	1034	0.86	2.0947254134799
19	1035	0.87	2.0947355791159
19	1036	0.88	2.0947436759446
19	1037	0.89	2.0947497429315
19	1038	0.9	2.0947538186761
19	1077	0.91	2.0947559414127
19	1112	0.92	2.0947561490076
19	1147	0.93	2.0947544789611
19	1148	0.94	2.0947509684062
19	1149	0.95	2.0947456541087
19	1184	0.96	2.094738572467
19	1185	0.97	2.0947297595129
19	1186	0.98	2.0947192509108
19	1187	0.99	2.0947070819592
19	1192	1	2.0946932875896
19	1231	1.01	2.0946779023669
19	1266	1.02	2.0946609604913
19	1301	1.03	2.0946424957977
19	1302	1.04	2.0946225417552
19	1303	1.05	2.0946011314702
19	1338	1.06	2.0945782976843
19	1339	1.07	2.0945540727778
19	1340	1.08	2.0945284887679
19	1341	1.09	2.0945015773111
19	1342	1.1	2.0944733697033
19	1382	1.11	2.0944438968816
19	1417	1.12	2.0944131894246
19	1452	1.13	2.0943812775532
19	1453	1.14	2.094348191132
19	1454	1.15	2.0943139596711
19	1489	1.16	2.0942786123266
19	1490	1.17	2.0942421779012
19	1491	1.18	2.0942046848464
19	1492	1.19	2.0941661612641
19	1493	1.2	2.0941266349065
19	1533	1.21	2.094086133179
19	1568	1.22	2.0940446831414
19	1603	1.23	2.0940023115085
19	1604	1.24	2.0939590446521
19	1605	1.25	2.0939149086034
19	1640	1.26	2.093869929052
19	1641	1.27	2.0938241313517
19	1642	1.28	2.0937775405176
19	1643	1.29	2.0937301812312
19	1644	1.3	2.0936820778407
19	1684	1.31	2.0936332543627
19	1931	1.32	2.0935837344852
19	1966	1.33	2.0935335415669
19	1967	1.34	2.0934826986409
19	1968	1.35	2.0934312284173
19	2004	1.36	2.0933791532837
19	2005	1.37	2.093326495307
19	2006	1.38	2.0932732762359
19	2007	1.39	2.0932195175031
19	2008	1.4	2.0931652402272
19	2047	1.41	2.0931104652143
19	2082	1.42	2.0930552129598
19	2117	1.43	2.092999503652
19	2118	1.44	2.0929433571722
19	2119	1.45	2.0928867930979
19	2154	1.46	2.0928298307049
19	2155	1.47	2.0927724889691
19	2156	1.48	2.092714786569
19	2157	1.49	2.092656741888
19	2158	1.5	2.0925983730161
19	2197	1.51	2.0925396977518
19	2232	1.52	2.092480733605
19	2267	1.53	2.0924214977993
19	2268	1.54	2.092362007274
19	2269	1.55	2.0923022786863
19	2304	1.56	2.0922423284129
19	2305	1.57	2.0921821725541
19	2306	1.58	2.092121826934
19	2307	1.59	2.0920613071039
19	2308	1.6	2.0920006283447
19	2347	1.61	2.0919398056686
19	2382	1.62	2.0918788538226
19	2417	1.63	2.0918177872894
19	2418	1.64	2.09175662029
19	2419	1.65	2.0916953667863
19	2454	1.66	2.091634040484
19	2455	1.67	2.0915726548346
19	2456	1.68	2.0915112230366
19	2457	1.69	2.0914497580396
19	2458	1.7	2.0913882725461
19	2497	1.71	2.0913267790125
19	2532	1.72	2.0912652896544
19	2567	1.73	2.091203816445
19	2568	1.74	2.0911423711215
19	2569	1.75	2.0910809651846
19	2604	1.76	2.0910196099013
19	2605	1.77	2.0909583163092
19	2606	1.78	2.090897095217
19	2607	1.79	2.0908359572064
19	2608	1.8	2.0907749126364
19	2647	1.81	2.0907139716446
19	2682	1.82	2.0906531441487
19	2717	1.83	2.0905924398508
19	2718	1.84	2.0905318682378
19	2719	1.85	2.0904714385848
19	2754	1.86	2.0904111599578
19	2755	1.87	2.0903510412149
19	2756	1.88	2.0902910910094
19	2757	1.89	2.0902313177918
19	2758	1.9	2.0901717298122
19	2797	1.91	2.0901123351229
19	2832	1.92	2.0900531415806
19	2867	1.93	2.089994156848
19	2868	1.94	2.0899353883973
19	2869	1.95	2.089876843511
19	2904	1.96	2.0898185292856
19	2905	1.97	2.0897604526335
19	2906	1.98	2.0897026202837
19	2907	1.99	2.0896450387873
19	2912	2	2.0895877145159
19	2951	2.01	2.089530653667
19	2986	2.02	2.0894738622648
19	3021	2.03	2.0894173461621
19	3022	2.04	2.0893611110433
19	3023	2.05	2.0893051624263
19	3058	2.06	2.0892495056644
19	3059	2.07	2.0891941459488
19	3060	2.08	2.0891390883113
19	3061	2.09	2.0890843376246
19	3062	2.1	2.0890298986064
19	3101	2.11	2.0889757758214
19	3136	2.12	2.0889219736814
19	3171	2.13	2.0888684964498
19	3172	2.14	2.0888153482423
19	3173	2.15	2.0887625330303
19	3208	2.16	2.0887100546405
19	3209	2.17	2.0886579167596
19	3210	2.18	2.0886061229357
19	3211	2.19	2.0885546765785
19	3212	2.2	2.0885035809635
19	3251	2.21	2.0884528392327
19	3286	2.22	2.088402454398
19	3321	2.23	2.0883524293415
19	3322	2.24	2.0883027668189
19	3323	2.25	2.0882534694603
19	3358	2.26	2.0882045397722
19	3359	2.27	2.0881559801413
19	3360	2.28	2.0881077928332
19	3361	2.29	2.0880599799974
19	3362	2.3	2.0880125436671
19	3401	2.31	2.0879654857622
19	3436	2.32	2.0879188080905
19	3471	2.33	2.0878725123497
19	3472	2.34	2.0878266001294
19	3473	2.35	2.0877810729131
19	3509	2.36	2.0877359320795
19	3722	2.37	2.0876911789051
19	3723	2.38	2.0876468145639
19	3724	2.39	2.0876028401319
19	3725	2.4	2.087559256587
19	3765	2.41	2.087516064812
19	3800	2.42	2.0874732655942
19	3835	2.43	2.08743085963
19	3836	2.44	2.0873888475237
19	3837	2.45	2.0873472297915
19	3872	2.46	2.0873060068616
19	3873	2.47	2.0872651790765
19	3874	2.48	2.0872247466944
19	3875	2.49	2.0871847098914
19	3876	2.5	2.0871450687619
19	3915	2.51	2.0871058233216
19	3950	2.52	2.0870669735077
19	3985	2.53	2.0870285191812
19	3986	2.54	2.0869904601281
19	3987	2.55	2.0869527960613
19	4022	2.56	2.0869155266218
19	4023	2.57	2.0868786513805
19	4024	2.58	2.0868421698389
19	4025	2.59	2.0868060814313
19	4026	2.6	2.0867703855264
19	4065	2.61	2.0867350814276
19	4100	2.62	2.0867001683754
19	4135	2.63	2.0866656455491
19	4136	2.64	2.0866315120668
19	4137	2.65	2.0865977669881
19	4172	2.66	2.0865644093143
19	4173	2.67	2.0865314379905
19	4174	2.68	2.0864988519065
19	4175	2.69	2.0864666498989
19	4176	2.7	2.0864348307516
19	4215	2.71	2.086403393197
19	4250	2.72	2.0863723359179
19	4285	2.73	2.0863416575482
19	4286	2.74	2.0863113566737
19	4287	2.75	2.0862814318352
19	4322	2.76	2.0862518815266
19	4323	2.77	2.0862227041999
19	4324	2.78	2.0861938982626
19	4325	2.79	2.0861654620814
19	4326	2.8	2.0861373939823
19	4365	2.81	2.0861096922523
19	4400	2.82	2.0860823551396
19	4435	2.83	2.0860553808559
19	4436	2.84	2.0860287675757
19	4437	2.85	2.0860025134395
19	4472	2.86	2.085976616554
19	4473	2.87	2.0859510749921
19	4474	2.88	2.0859258867956
19	4475	2.89	2.0859010499742
19	4476	2.9	2.0858765625096
19	4515	2.91	2.0858524223528
19	4550	2.92	2.0858286274276
19	4585	2.93	2.0858051756313
19	4586	2.94	2.0857820648336
19	4587	2.95	2.0857592928811
19	4622	2.96	2.085736857595
19	4623	2.97	2.0857147567727
19	4624	2.98	2.0856929881909
19	4625	2.99	2.0856715496027
19	4630	3	2.085650438742
19	4669	3.01	2.0856296533227
19	4704	3.02	2.0856091910394
19	4739	3.03	2.0855890495682
19	4740	3.04	2.0855692265686
19	4741	3.05	2.0855497196831
19	4776	3.06	2.0855305265381
19	4777	3.07	2.0855116447456
19	4778	3.08	2.0854930719032
19	4779	3.09	2.0854748055952
19	4780	3.1	2.0854568433932
19	4819	3.11	2.0854391828564
19	4854	3.12	2.0854218215323
19	4889	3.13	2.0854047569589
19	4890	3.14	2.0853879866631
19	4891	3.15	2.0853715081638
19	4926	3.16	2.0853553189703
19	4927	3.17	2.0853394165849
19	4928	3.18	2.085323798502
19	4929	3.19	2.0853084622098
19	4930	3.2	2.0852934051898
19	4969	3.21	2.085278624919
19	5004	3.22	2.0852641188691
19	5039	3.23	2.0852498845074
19	5040	3.24	2.0852359192978
19	5041	3.25	2.0852222207011
19	5076	3.26	2.085208786176
19	5077	3.27	2.085195613179
19	5078	3.28	2.0851826991653
19	5079	3.29	2.0851700415888
19	5080	3.3	2.0851576379031
19	5119	3.31	2.0851454855626
19	5154	3.32	2.0851335820214
19	5189	3.33	2.0851219247354
19	5190	3.34	2.0851105111619
19	5191	3.35	2.0850993387603
19	5226	3.36	2.0850884049923
19	5227	3.37	2.0850777073227
19	5228	3.38	2.0850672432202
19	5229	3.39	2.0850570101566
19	5230	3.4	2.0850470056083
19	5270	3.41	2.085037227056
19	5561	3.42	2.0850276719863
19	5596	3.43	2.0850183378901
19	5597	3.44	2.0850092222655
19	5598	3.45	2.0850003226158
19	5634	3.46	2.0849916364519
19	5635	3.47	2.0849831612904
19	5636	3.48	2.084974894656
19	5637	3.49	2.0849668340807
19	5638	3.5	2.0849589771047
19	5677	3.51	2.0849513212763
19	5712	3.52	2.0849438641531
19	5747	3.53	2.0849366033009
19	5748	3.54	2.0849295362947
19	5749	3.55	2.0849226607195
19	5784	3.56	2.0849159741697
19	5785	3.57	2.0849094742504
19	5786	3.58	2.0849031585768
19	5787	3.59	2.0848970247741
19	5788	3.6	2.0848910704791
19	5827	3.61	2.0848852933395
19	5862	3.62	2.0848796910146
19	5897	3.63	2.084874261175
19	5898	3.64	2.0848690015033
19	5899	3.65	2.0848639096944
19	5934	3.66	2.084858983455
19	5935	3.67	2.0848542205045
19	5936	3.68	2.0848496185754
19	5937	3.69	2.0848451754122
19	5938	3.7	2.0848408887739
19	5977	3.71	2.0848367564315
19	6012	3.72	2.0848327761697
19	6047	3.73	2.0848289457866
19	6048	3.74	2.0848252630952
19	6049	3.75	2.0848217259209
19	6084	3.76	2.0848183321048
19	6085	3.77	2.0848150795006
19	6086	3.78	2.0848119659779
19	6087	3.79	2.0848089894194
19	6088	3.8	2.0848061477236
19	6127	3.81	2.0848034388034
19	6162	3.82	2.0848008605864
19	6197	3.83	2.0847984110152
19	6198	3.84	2.0847960880475
19	6199	3.85	2.0847938896562
19	6234	3.86	2.08479181383
19	6235	3.87	2.0847898585727
19	6236	3.88	2.0847880219033
19	6237	3.89	2.084786301857
19	6238	3.9	2.0847846964839
19	6277	3.91	2.0847832038508
19	6312	3.92	2.0847818220392
19	6347	3.93	2.0847805491476
19	6348	3.94	2.0847793832893
19	6349	3.95	2.0847783225947
19	6384	3.96	2.0847773652093
19	6385	3.97	2.0847765092955
19	6386	3.98	2.0847757530309
19	6387	3.99	2.0847750946106
19	6392	4	2.0847745322447
19	6431	4.01	2.08477406416
19	6466	4.02	2.0847736885999
19	6501	4.03	2.0847734038236
19	6502	4.04	2.084773208107
19	6503	4.05	2.0847730997422
19	6538	4.06	2.0847730770372
19	6539	4.07	2.0847731383172
19	6540	4.08	2.0847732819233
19	6541	4.09	2.084773506213
19	6542	4.1	2.0847738095604
19	6581	4.11	2.084774190356
19	6616	4.12	2.0847746470063
19	6651	4.13	2.0847751779347
19	6652	4.14	2.0847757815804
19	6653	4.15	2.0847764563991
19	6688	4.16	2.084777200863
19	6689	4.17	2.0847780134603
19	6690	4.18	2.0847788926963
19	6691	4.19	2.0847798370912
19	6692	4.2	2.0847808451825
19	6731	4.21	2.0847819155236
19	6766	4.22	2.0847830466841
19	6801	4.23	2.0847842372497
19	6802	4.24	2.0847854858218
19	6803	4.25	2.0847867910183
19	6838	4.26	2.0847881514732
19	6839	4.27	2.084789565836
19	6840	4.28	2.0847910327727
19	6841	4.29	2.0847925509644
19	6842	4.3	2.0847941191082
19	6881	4.31	2.084795735918
19	6916	4.32	2.0847974001216
19	6951	4.33	2.084799110464
19	6952	4.34	2.0848008657047
19	6953	4.35	2.0848026646195
19	6988	4.36	2.0848045059992
19	6989	4.37	2.0848063886502
19	6990	4.38	2.0848083113938
19	6991	4.39	2.0848102730672
19	6992	4.4	2.0848122725223
19	7031	4.41	2.084814308626
19	7066	4.42	2.0848163802605
19	7101	4.43	2.084818486323
19	7102	4.44	2.0848206257258
19	7103	4.45	2.0848227973951
19	7139	4.46	2.0848250002728
19	7352	4.47	2.084827233315
19	7353	4.48	2.084829495492
19	7354	4.49	2.0848317857892
19	7355	4.5	2.0848341032063
19	7395	4.51	2.0848364467573
19	7430	4.52	2.0848388154693
19	7465	4.53	2.0848412083856
19	7466	4.54	2.0848436245619
19	7467	4.55	2.084846063068
19	7502	4.56	2.0848485229881
19	7503	4.57	2.0848510034205
19	7504	4.58	2.0848535034762
19	7505	4.59	2.08485602228
19	7506	4.6	2.0848585589709
19	7545	4.61	2.0848611127003
19	7580	4.62	2.0848636826339
19	7615	4.63	2.0848662679501
19	7616	4.64	2.0848688678397
19	7617	4.65	2.0848714815078
19	7652	4.66	2.0848741081716
19	7653	4.67	2.0848767470609
19	7654	4.68	2.0848793974184
19	7655	4.69	2.0848820585001
19	7656	4.7	2.0848847295736
19	7695	4.71	2.0848874099198
19	7730	4.72	2.0848900988306
19	7765	4.73	2.0848927956111
19	7766	4.74	2.0848954995782
19	7767	4.75	2.0848982100608
19	7802	4.76	2.0849009263999
19	7803	4.77	2.0849036479478
19	7804	4.78	2.0849063740685
19	7805	4.79	2.0849091041385
19	7806	4.8	2.0849118375444
19	7845	4.81	2.0849145736852
[...]
2	68126	55.23	931.55726268403
2	68127	55.24	931.69615168374
2	68128	55.25	931.83504068346
2	68147	55.26	931.97392968317
2	68148	55.27	932.11281868289
2	68149	55.28	932.2517076826
2	68150	55.29	932.39059668231
2	68151	55.3	932.52948568203
2	68154	55.31	932.66837468175
2	68155	55.32	932.80726368146
2	68174	55.33	932.94615268118
2	68175	55.34	933.0850416809
2	68176	55.35	933.22393068061
2	68195	55.36	933.36281968033
2	68196	55.37	933.50170868005
2	68197	55.38	933.64059767977
2	68198	55.39	933.77948667949
2	68199	55.4	933.91837567921
2	68202	55.41	934.05726467893
2	68203	55.42	934.19615367865
2	68222	55.43	934.33504267837
2	68223	55.44	934.47393167809
2	68224	55.45	934.61282067782
2	68243	55.46	934.75170967754
2	68244	55.47	934.89059867726
2	68245	55.48	935.02948767698
2	68246	55.49	935.16837667671
2	68247	55.5	935.30726567643
2	68250	55.51	935.44615467616
2	68251	55.52	935.58504367588
2	68270	55.53	935.72393267561
2	68271	55.54	935.86282167533
2	68272	55.55	936.00171067506
2	68291	55.56	936.14059967479
2	68292	55.57	936.27948867451
2	68293	55.58	936.41837767424
2	68294	55.59	936.55726667397
2	68295	55.6	936.6961556737
2	68298	55.61	936.83504467343
2	68299	55.62	936.97393367316
2	68318	55.63	937.11282267289
2	68319	55.64	937.25171167262
2	68320	55.65	937.39060067235
2	68339	55.66	937.52948967208
2	68340	55.67	937.66837867181
2	68341	55.68	937.80726767154
2	68342	55.69	937.94615667127
2	68343	55.7	938.08504567101
2	68346	55.71	938.22393467074
2	68347	55.72	938.36282367047
2	68366	55.73	938.50171267021
2	68367	55.74	938.64060166994
2	68368	55.75	938.77949066968
2	68387	55.76	938.91837966941
2	68388	55.77	939.05726866915
2	68389	55.78	939.19615766888
2	68390	55.79	939.33504666862
2	68391	55.8	939.47393566836
2	68394	55.81	939.61282466809
2	68395	55.82	939.75171366783
2	68414	55.83	939.89060266757
2	68415	55.84	940.02949166731
2	68416	55.85	940.16838066705
2	68435	55.86	940.30726966679
2	68436	55.87	940.44615866653
2	68437	55.88	940.58504766627
2	68438	55.89	940.72393666601
2	68439	55.9	940.86282566575
2	68442	55.91	941.00171466549
2	68443	55.92	941.14060366523
2	68462	55.93	941.27949266497
2	68463	55.94	941.41838166472
2	68464	55.95	941.55727066446
2	68483	55.96	941.6961596642
2	68484	55.97	941.83504866395
2	68485	55.98	941.97393766369
2	68486	55.99	942.11282666343
2	68489	56	942.25171566318
2	68492	56.01	942.39060466292
2	68493	56.02	942.52949366267
2	68512	56.03	942.66838266242
2	68513	56.04	942.80727166216
2	68514	56.05	942.94616066191
2	68533	56.06	943.08504966166
2	68534	56.07	943.2239386614
2	68535	56.08	943.36282766115
2	68536	56.09	943.5017166609
2	68537	56.1	943.64060566065
2	68540	56.11	943.7794946604
2	68541	56.12	943.91838366015
2	68560	56.13	944.0572726599
2	68561	56.14	944.19616165965
2	68562	56.15	944.3350506594
2	68581	56.16	944.47393965915
2	68582	56.17	944.6128286589
2	68583	56.18	944.75171765866
2	68584	56.19	944.89060665841
2	68585	56.2	945.02949565816
2	68588	56.21	945.16838465791
2	68589	56.22	945.30727365767
2	68608	56.23	945.44616265742
2	68609	56.24	945.58505165718
2	68610	56.25	945.72394065693
2	68629	56.26	945.86282965669
2	68630	56.27	946.00171865644
2	68631	56.28	946.1406076562
2	68632	56.29	946.27949665595
2	68633	56.3	946.41838565571
2	68636	56.31	946.55727465547
2	68637	56.32	946.69616365522
2	68656	56.33	946.83505265498
2	68657	56.34	946.97394165474
2	68658	56.35	947.1128306545
2	68677	56.36	947.25171965426
2	68678	56.37	947.39060865402
2	68679	56.38	947.52949765378
2	68680	56.39	947.66838665354
2	68681	56.4	947.8072756533
2	68684	56.41	947.94616465306
2	68685	56.42	948.08505365282
2	68704	56.43	948.22394265258
2	68705	56.44	948.36283165234
2	68706	56.45	948.5017206521
2	68725	56.46	948.64060965187
2	68726	56.47	948.77949865163
2	68727	56.48	948.91838765139
2	68728	56.49	949.05727665116
2	68729	56.5	949.19616565092
2	68732	56.51	949.33505465069
2	68733	56.52	949.47394365045
2	68752	56.53	949.61283265022
2	68753	56.54	949.75172164998
2	68754	56.55	949.89061064975
2	68773	56.56	950.02949964951
2	68774	56.57	950.16838864928
2	68775	56.58	950.30727764905
2	68776	56.59	950.44616664881
2	68777	56.6	950.58505564858
2	68780	56.61	950.72394464835
2	68781	56.62	950.86283364812
2	68800	56.63	951.00172264789
2	68801	56.64	951.14061164766
2	68802	56.65	951.27950064743
2	68821	56.66	951.4183896472
2	68822	56.67	951.55727864697
2	68823	56.68	951.69616764674
2	68824	56.69	951.83505664651
2	68825	56.7	951.97394564628
2	68828	56.71	952.11283464605
2	68829	56.72	952.25172364582
2	68848	56.73	952.3906126456
2	68849	56.74	952.52950164537
2	68850	56.75	952.66839064514
2	68869	56.76	952.80727964491
2	68870	56.77	952.94616864469
2	68871	56.78	953.08505764446
2	68872	56.79	953.22394664424
2	68873	56.8	953.36283564401
2	68876	56.81	953.50172464379
2	68877	56.82	953.64061364356
2	68896	56.83	953.77950264334
2	68897	56.84	953.91839164312
2	68898	56.85	954.05728064289
2	68917	56.86	954.19616964267
2	68918	56.87	954.33505864245
2	68919	56.88	954.47394764222
2	68920	56.89	954.612836642
2	68921	56.9	954.75172564178
2	68924	56.91	954.89061464156
2	68925	56.92	955.02950364134
2	68944	56.93	955.16839264112
2	68945	56.94	955.3072816409
2	68946	56.95	955.44617064068
2	68965	56.96	955.58505964046
2	68966	56.97	955.72394864024
2	68967	56.98	955.86283764002
2	68968	56.99	956.0017266398
2	68971	57	956.14061563958
2	68974	57.01	956.27950463937
2	68975	57.02	956.41839363915
2	68994	57.03	956.55728263893
2	68995	57.04	956.69617163871
2	68996	57.05	956.8350606385
2	69015	57.06	956.97394963828
2	69016	57.07	957.11283863806
2	69017	57.08	957.25172763785
2	69018	57.09	957.39061663763
2	69019	57.1	957.52950563742
2	69022	57.11	957.66839463721
2	69023	57.12	957.80728363699
2	69042	57.13	957.94617263678
2	69043	57.14	958.08506163656
2	69044	57.15	958.22395063635
2	69063	57.16	958.36283963614
2	69064	57.17	958.50172863593
2	69065	57.18	958.64061763571
2	69066	57.19	958.7795066355
2	69067	57.2	958.91839563529
2	69070	57.21	959.05728463508
2	69071	57.22	959.19617363487
2	69090	57.23	959.33506263466
2	69091	57.24	959.47395163445
2	69092	57.25	959.61284063424
2	69111	57.26	959.75172963403
2	69112	57.27	959.89061863382
2	69113	57.28	960.02950763361
2	69114	57.29	960.1683966334
2	69115	57.3	960.30728563319
2	69118	57.31	960.44617463299
2	69119	57.32	960.58506363278
2	69138	57.33	960.72395263257
2	69139	57.34	960.86284163236
2	69140	57.35	961.00173063216
2	69159	57.36	961.14061963195
2	69160	57.37	961.27950863174
2	69161	57.38	961.41839763154
2	69162	57.39	961.55728663133
2	69163	57.4	961.69617563113
2	69166	57.41	961.83506463092
2	69167	57.42	961.97395363072
2	69186	57.43	962.11284263052
2	69187	57.44	962.25173163031
2	69188	57.45	962.39062063011
2	69207	57.46	962.52950962991
2	69208	57.47	962.6683986297
2	69209	57.48	962.8072876295
2	69210	57.49	962.9461766293
2	69211	57.5	963.0850656291
2	69214	57.51	963.22395462889
2	69215	57.52	963.36284362869
2	69234	57.53	963.50173262849
2	69235	57.54	963.64062162829
2	69236	57.55	963.77951062809
2	69255	57.56	963.91839962789
2	69256	57.57	964.05728862769
2	69257	57.58	964.19617762749
2	69258	57.59	964.33506662729
2	69259	57.6	964.4739556271
2	69262	57.61	964.6128446269
2	69263	57.62	964.7517336267
2	69282	57.63	964.8906226265
2	69283	57.64	965.0295116263
2	69284	57.65	965.16840062611
2	69303	57.66	965.30728962591
2	69304	57.67	965.44617862571
2	69305	57.68	965.58506762552
2	69306	57.69	965.72395662532
2	69307	57.7	965.86284562513
2	69310	57.71	966.00173462493
2	69311	57.72	966.14062362474
2	69330	57.73	966.27951262454
2	69331	57.74	966.41840162435
2	69332	57.75	966.55729062415
2	69351	57.76	966.69617962396
2	69352	57.77	966.83506862377
2	69353	57.78	966.97395762357
2	69354	57.79	967.11284662338
2	69355	57.8	967.25173562319
2	69358	57.81	967.39062462299
2	69359	57.82	967.5295136228
2	69378	57.83	967.66840262261
2	69379	57.84	967.80729162242
2	69380	57.85	967.94618062223
2	69399	57.86	968.08506962204
2	69400	57.87	968.22395862185
2	69401	57.88	968.36284762166
2	69402	57.89	968.50173662147
2	69403	57.9	968.64062562128
2	69406	57.91	968.77951462109
2	69407	57.92	968.9184036209
2	69426	57.93	969.05729262071
2	69427	57.94	969.19618162052
2	69428	57.95	969.33507062033
2	69447	57.96	969.47395962015
2	69448	57.97	969.61284861996
2	69449	57.98	969.75173761977
2	69450	57.99	969.89062661958
2	69453	58	970.0295156194
2	69456	58.01	970.16840461921
2	69457	58.02	970.30729361903
2	69476	58.03	970.44618261884
2	69477	58.04	970.58507161865
2	69478	58.05	970.72396061847
2	69497	58.06	970.86284961828
2	69498	58.07	971.0017386181
2	69499	58.08	971.14062761791
2	69500	58.09	971.27951661773
2	69501	58.1	971.41840561755
2	69504	58.11	971.55729461736
2	69505	58.12	971.69618361718
2	69524	58.13	971.835072617
2	69525	58.14	971.97396161681
2	69526	58.15	972.11285061663
2	69545	58.16	972.25173961645
2	69546	58.17	972.39062861627
2	69547	58.18	972.52951761609
2	69548	58.19	972.66840661591
2	69549	58.2	972.80729561573
2	69552	58.21	972.94618461554
2	69553	58.22	973.08507361536
2	69572	58.23	973.22396261518
2	69573	58.24	973.362851615
2	69574	58.25	973.50174061482
2	69593	58.26	973.64062961465
2	69594	58.27	973.77951861447
2	69595	58.28	973.91840761429
2	69596	58.29	974.05729661411
2	69597	58.3	974.19618561393
2	69600	58.31	974.33507461375
2	69601	58.32	974.47396361358
2	69620	58.33	974.6128526134
2	69621	58.34	974.75174161322
2	69622	58.35	974.89063061304
2	69641	58.36	975.02951961287
2	69642	58.37	975.16840861269
2	69643	58.38	975.30729761252
2	69644	58.39	975.44618661234
2	69645	58.4	975.58507561217
2	69648	58.41	975.72396461199
2	69649	58.42	975.86285361182
2	69668	58.43	976.00174261164
2	69669	58.44	976.14063161147
2	69670	58.45	976.27952061129
2	69689	58.46	976.41840961112
2	69690	58.47	976.55729861095
2	69691	58.48	976.69618761077
2	69692	58.49	976.8350766106
2	69693	58.5	976.97396561043
2	69696	58.51	977.11285461025
2	69697	58.52	977.25174361008
2	69716	58.53	977.39063260991
2	69717	58.54	977.52952160974
2	69718	58.55	977.66841060957
2	69737	58.56	977.8072996094
2	69738	58.57	977.94618860923
2	69739	58.58	978.08507760906
2	69740	58.59	978.22396660889
2	69741	58.6	978.36285560872
2	69744	58.61	978.50174460855
2	69745	58.62	978.64063360838
2	69764	58.63	978.77952260821
2	69765	58.64	978.91841160804
2	69766	58.65	979.05730060787
2	69785	58.66	979.1961896077
2	69786	58.67	979.33507860753
2	69787	58.68	979.47396760736
2	69788	58.69	979.6128566072
2	69789	58.7	979.75174560703
2	69792	58.71	979.89063460686
2	69793	58.72	980.0295236067
2	69812	58.73	980.16841260653
2	69813	58.74	980.30730160636
2	69814	58.75	980.4461906062
2	69833	58.76	980.58507960603
2	69834	58.77	980.72396860587
2	69835	58.78	980.8628576057
2	69836	58.79	981.00174660554
2	69837	58.8	981.14063560537
2	69840	58.81	981.27952460521
2	69841	58.82	981.41841360504
2	69860	58.83	981.55730260488
2	69861	58.84	981.69619160471
2	69862	58.85	981.83508060455
2	69881	58.86	981.97396960439
2	69882	58.87	982.11285860422
2	69883	58.88	982.25174760406
2	69884	58.89	982.3906366039
2	69885	58.9	982.52952560374
2	69888	58.91	982.66841460358
2	69889	58.92	982.80730360341
2	69908	58.93	982.94619260325
2	69909	58.94	983.08508160309
2	69910	58.95	983.22397060293
2	69929	58.96	983.36285960277
2	69930	58.97	983.50174860261
2	69931	58.98	983.64063760245
2	69932	58.99	983.77952660229
2	69935	59	983.91841560213
2	69938	59.01	984.05730460197
2	69939	59.02	984.19619360181
2	69958	59.03	984.33508260165
2	69959	59.04	984.47397160149
2	69960	59.05	984.61286060133
2	69979	59.06	984.75174960118
2	69980	59.07	984.89063860102
2	69981	59.08	985.02952760086
2	69982	59.09	985.1684166007
2	69983	59.1	985.30730560055
2	69986	59.11	985.44619460039
2	69987	59.12	985.58508360023
2	70006	59.13	985.72397260008
2	70007	59.14	985.86286159992
2	70008	59.15	986.00175059976
2	70027	59.16	986.14063959961
2	70028	59.17	986.27952859945
2	70029	59.18	986.4184175993
2	70030	59.19	986.55730659914
2	70031	59.2	986.69619559899
2	70034	59.21	986.83508459883
2	70035	59.22	986.97397359868
2	70054	59.23	987.11286259852
2	70055	59.24	987.25175159837
2	70056	59.25	987.39064059822
2	70075	59.26	987.52952959806
2	70076	59.27	987.66841859791
2	70077	59.28	987.80730759776
2	70078	59.29	987.94619659761
2	70079	59.3	988.08508559745
2	70082	59.31	988.2239745973
2	70083	59.32	988.36286359715
2	70102	59.33	988.501752597
2	70103	59.34	988.64064159685
2	70104	59.35	988.77953059669
2	70123	59.36	988.91841959654
2	70124	59.37	989.05730859639
2	70125	59.38	989.19619759624
2	70126	59.39	989.33508659609
2	70127	59.4	989.47397559594
2	70130	59.41	989.61286459579
2	70131	59.42	989.75175359564
2	70150	59.43	989.89064259549
2	70151	59.44	990.02953159534
2	70152	59.45	990.1684205952
2	70171	59.46	990.30730959505
2	70172	59.47	990.4461985949
2	70173	59.48	990.58508759475
2	70174	59.49	990.7239765946
2	70175	59.5	990.86286559446
2	70178	59.51	991.00175459431
2	70179	59.52	991.14064359416
2	70198	59.53	991.27953259401
2	70199	59.54	991.41842159387
2	70200	59.55	991.55731059372
2	70219	59.56	991.69619959357
2	70220	59.57	991.83508859343
2	70221	59.58	991.97397759328
2	70222	59.59	992.11286659314
2	70223	59.6	992.25175559299
2	70226	59.61	992.39064459285
2	70227	59.62	992.5295335927
2	70246	59.63	992.66842259256
2	70247	59.64	992.80731159241
2	70248	59.65	992.94620059227
2	70267	59.66	993.08508959212
2	70268	59.67	993.22397859198
2	70269	59.68	993.36286759183
2	70270	59.69	993.50175659169
2	70271	59.7	993.64064559155
2	70274	59.71	993.77953459141
2	70275	59.72	993.91842359126
2	70294	59.73	994.05731259112
2	70295	59.74	994.19620159098
2	70296	59.75	994.33509059084
2	70315	59.76	994.47397959069
2	70316	59.77	994.61286859055
2	70317	59.78	994.75175759041
2	70318	59.79	994.89064659027
2	70319	59.8	995.02953559013
2	70322	59.81	995.16842458999
2	70323	59.82	995.30731358985
2	70342	59.83	995.44620258971
2	70343	59.84	995.58509158957
2	70344	59.85	995.72398058943
2	70363	59.86	995.86286958929
2	70364	59.87	996.00175858915
2	70365	59.88	996.14064758901
2	70366	59.89	996.27953658887
2	70367	59.9	996.41842558873
2	70370	59.91	996.55731458859
2	70371	59.92	996.69620358845
2	70390	59.93	996.83509258832
2	70391	59.94	996.97398158818
2	70392	59.95	997.11287058804
2	70411	59.96	997.2517595879
2	70412	59.97	997.39064858777
2	70413	59.98	997.52953758763
2	70414	59.99	997.66842658749
2	70417	60	997.80731558736
2	70420	60.01	997.94620458722
2	70421	60.02	998.08509358708
2	70440	60.03	998.22398258695
2	70441	60.04	998.36287158681
2	70442	60.05	998.50176058668
2	70461	60.06	998.64064958654
2	70462	60.07	998.77953858641
2	70463	60.08	998.91842758627
2	70464	60.09	999.05731658614
2	70465	60.1	999.196205586
2	70468	60.11	999.33509458587
2	70469	60.12	999.47398358573
2	70488	60.13	999.6128725856
2	70489	60.14	999.75176158547
2	70490	60.15	999.89065058533
2	70509	60.16	1000.0295395852
2	70510	60.17	1000.1684285851
2	70511	60.18	1000.3073175849
2	70512	60.19	1000.4462065848
2	70513	60.2	1000.5850955847
2	70516	60.21	1000.7239845845
2	70517	60.22	1000.8628735844
2	70536	60.23	1001.0017625843
2	70537	60.24	1001.1406515841
2	70538	60.25	1001.279540584
2	70557	60.26	1001.4184295839
2	70558	60.27	1001.5573185837
2	70559	60.28	1001.6962075836
2	70560	60.29	1001.8350965835
2	70561	60.3	1001.9739855834
2	70564	60.31	1002.1128745832
2	70565	60.32	1002.2517635831
2	70584	60.33	1002.390652583
2	70585	60.34	1002.5295415828
2	70586	60.35	1002.6684305827
2	70605	60.36	1002.8073195826
2	70606	60.37	1002.9462085824
2	70607	60.38	1003.0850975823
2	70608	60.39	1003.2239865822
2	70609	60.4	1003.3628755821
2	70612	60.41	1003.5017645819
2	70613	60.42	1003.6406535818
2	70632	60.43	1003.7795425817
2	70633	60.44	1003.9184315816
2	70634	60.45	1004.0573205814
2	70653	60.46	1004.1962095813
2	70654	60.47	1004.3350985812
2	70655	60.48	1004.473987581
2	70656	60.49	1004.6128765809
2	70657	60.5	1004.7517655808
2	70660	60.51	1004.8906545807
2	70661	60.52	1005.0295435805
2	70680	60.53	1005.1684325804
2	70681	60.54	1005.3073215803
2	70682	60.55	1005.4462105802
2	70701	60.56	1005.58509958
2	70702	60.57	1005.7239885799
2	70703	60.58	1005.8628775798
2	70704	60.59	1006.0017665797
2	70705	60.6	1006.1406555795
2	70708	60.61	1006.2795445794
2	70709	60.62	1006.4184335793
2	70728	60.63	1006.5573225792
2	70729	60.64	1006.696211579
2	70730	60.65	1006.8351005789
2	70749	60.66	1006.9739895788
2	70750	60.67	1007.1128785787
2	70751	60.68	1007.2517675786
2	70752	60.69	1007.3906565784
2	70753	60.7	1007.5295455783
2	70756	60.71	1007.6684345782
2	70757	60.72	1007.8073235781
2	70776	60.73	1007.9462125779
2	70777	60.74	1008.0851015778
2	70778	60.75	1008.2239905777
2	70797	60.76	1008.3628795776
2	70798	60.77	1008.5017685775
2	70799	60.78	1008.6406575773
2	70800	60.79	1008.7795465772
2	70801	60.8	1008.9184355771
2	70804	60.81	1009.057324577
2	70805	60.82	1009.1962135769
2	70824	60.83	1009.3351025767
2	70825	60.84	1009.4739915766
2	70826	60.85	1009.6128805765
2	70845	60.86	1009.7517695764
2	70846	60.87	1009.8906585763
2	70847	60.88	1010.0295475761
2	70848	60.89	1010.168436576
2	70849	60.9	1010.3073255759
2	70852	60.91	1010.4462145758
2	70853	60.92	1010.5851035757
2	70872	60.93	1010.7239925755
2	70873	60.94	1010.8628815754
2	70874	60.95	1011.0017705753
2	70893	60.96	1011.1406595752
2	70894	60.97	1011.2795485751
2	70895	60.98	1011.418437575
2	70896	60.99	1011.5573265748
2	70899	61	1011.6962155747
2	70902	61.01	1011.8351045746
2	70903	61.02	1011.9739935745
2	70922	61.03	1012.1128825744
2	70923	61.04	1012.2517715743
2	70924	61.05	1012.3906605741
2	70943	61.06	1012.529549574
2	70944	61.07	1012.6684385739
2	70945	61.08	1012.8073275738
2	70946	61.09	1012.9462165737
2	70947	61.1	1013.0851055736
2	70950	61.11	1013.2239945734
2	70951	61.12	1013.3628835733
2	70970	61.13	1013.5017725732
2	70971	61.14	1013.6406615731
2	70972	61.15	1013.779550573
2	70991	61.16	1013.9184395729
2	70992	61.17	1014.0573285728
2	70993	61.18	1014.1962175726
2	70994	61.19	1014.3351065725
2	70995	61.2	1014.4739955724
2	70998	61.21	1014.6128845723
2	70999	61.22	1014.7517735722
2	71018	61.23	1014.8906625721
2	71019	61.24	1015.029551572
2	71020	61.25	1015.1684405719
2	71039	61.26	1015.3073295717
2	71040	61.27	1015.4462185716
2	71041	61.28	1015.5851075715
2	71042	61.29	1015.7239965714
2	71043	61.3	1015.8628855713
2	71046	61.31	1016.0017745712
2	71047	61.32	1016.1406660221
2	71058	61.33	1016.2795647778
2	71059	61.34	1016.4184755972
2	71060	61.35	1016.5574031456
2	71061	61.36	1016.6963519969
2	71062	61.37	1016.8353266355
2	71063	61.38	1016.9743314577
2	71064	61.39	1017.1133707735
2	71065	61.4	1017.2524488086
2	71067	61.41	1017.3915697058
2	71068	61.42	1017.5307375265
2	71079	61.43	1017.6699562528
2	71080	61.44	1017.8092297883
2	71081	61.45	1017.9485619604
2	71082	61.46	1018.0879565212
2	71083	61.47	1018.2274171495
2	71084	61.48	1018.3669474518
2	71085	61.49	1018.5065509638
2	71086	61.5	1018.646231152
2	71088	61.51	1018.785991415
2	71089	61.52	1018.9258350845
2	71100	61.53	1019.0657654273
2	71101	61.54	1019.2057856456
2	71102	61.55	1019.3458988793
2	71103	61.56	1019.4861082064
2	71104	61.57	1019.6264166448
2	71105	61.58	1019.766827153
2	71106	61.59	1019.9073426316
2	71107	61.6	1020.0479659244
2	71109	61.61	1020.1886998192
2	71110	61.62	1020.3295470495
2	71121	61.63	1020.4705102949
2	71122	61.64	1020.6115921824
2	71123	61.65	1020.7527952879
2	71124	61.66	1020.8941221364
2	71125	61.67	1021.0355752036
2	71126	61.68	1021.1771569165
2	71127	61.69	1021.3188696547
2	71128	61.7	1021.4607157509
2	71130	61.71	1021.6026974923
2	71131	61.72	1021.7448171211
2	71142	61.73	1021.8870768356
2	71143	61.74	1022.029478791
2	71144	61.75	1022.1720251002
2	71145	61.76	1022.3147178347
2	71146	61.77	1022.4575590254
2	71147	61.78	1022.6005506634
2	71148	61.79	1022.7436947006
2	71149	61.8	1022.8869930508
2	71151	61.81	1023.0304475902
2	71152	61.82	1023.1740601582
2	71163	61.83	1023.3178325583
2	71164	61.84	1023.4617665583
2	71165	61.85	1023.6058638917
2	71166	61.86	1023.7501262577
2	71167	61.87	1023.8945553225
2	71168	61.88	1024.0391527193
2	71169	61.89	1024.1839200495
2	71170	61.9	1024.328858883
2	71172	61.91	1024.473970759
2	71173	61.92	1024.6192571865
2	71184	61.93	1024.7647196448

