version 3
run OvertakeNoGui-226-20241104-10:03:21-91403
attr configname OvertakeNoGui
attr datetime 20241104-10:03:21
attr datetimef 20241104-100321
attr experiment OvertakeNoGui
attr inifile omnetpp.ini
attr iterationvars "$leaderHeadway=1.2, $leaderSpeed=50, $controller=0, $pCSpeed=55, $pDeltaC=502"
attr iterationvarsd leaderHeadway=1.2/leaderSpeed=50/controller=0/pCSpeed=55/pDeltaC=502
attr iterationvarsf leaderHeadway=1.2,leaderSpeed=50,controller=0,pCSpeed=55,pDeltaC=502-
attr measurement "$leaderHeadway=1.2, $leaderSpeed=50, $controller=0, $pCSpeed=55, $pDeltaC=502"
attr network Overtake
attr processid 91403
attr repetition 0
attr replication #0
attr resultdir results
attr runnumber 226
attr seedset 0
itervar controller 0
itervar leaderHeadway 1.2
itervar leaderSpeed 50
itervar pCSpeed 55
itervar pDeltaC 502
config image-path ../../../../veins/images;../../images
config *.manager.command "\"sumo\""
config *.manager.ignoreGuiCommands true
config *.node[*].scenario_type "\"OvertakeScenario\""
config output-vector-file results/OvertakeNoGui_55_502_0.vec
config output-scalar-file results/OvertakeNoGui_55_502_0.sca
config cmdenv-express-mode false
config cmdenv-autoflush true
config cmdenv-status-frequency 10s
config num-rngs 6
config cmdenv-output-file log.txt
config cmdenv-redirect-output true
config network Overtake
config debug-on-errors true
config print-undisposed true
config *.playgroundSizeX 65000m
config *.playgroundSizeY 25000m
config *.playgroundSizeZ 50m
config sim-time-limit "360 s"
config *.annotations.draw false
config *.obstacles.debug false
config *.world.useTorus false
config *.world.use2D false
config *.manager.updateInterval 0.01s
config *.manager.host "\"localhost\""
config *.manager.moduleType "\"vtypeauto=org.car2x.plexe.PlatoonCar vtypehuman=0\""
config *.manager.moduleName "\"vtypeauto=node vtypehuman=0\""
config *.manager.moduleDisplayString "\"\""
config *.manager.autoShutdown true
config *.manager.margin 25
config *.manager.order -1
config *.connectionManager.sendDirect true
config *.connectionManager.maxInterfDist 2600m
config *.connectionManager.drawMaxIntfDist false
config *.**.nic.mac1609_4.useServiceChannel false
config *.**.nic.mac1609_4.txPower 100mW
config *.**.nic.mac1609_4.bitrate 6Mbps
config *.**.nic.mac1609_4.useAcks true
config *.**.nic.mac1609_4.ackErrorRate 0.0
config *.**.nic.mac1609_4.frameErrorRate 0.0
config *.**.nic.phy80211p.minPowerLevel -94dBm
config *.**.nic.phy80211p.maxTXPower 100mW
config *.**.nic.phy80211p.useNoiseFloor true
config *.**.nic.phy80211p.noiseFloor -95dBm
config *.**.nic.phy80211p.decider "xmldoc(\"config.xml\")"
config *.**.nic.phy80211p.analogueModels "xmldoc(\"config.xml\")"
config *.**.nic.phy80211p.usePropagationDelay true
config *.node[*].mobility.x 0
config *.node[*].mobility.y 0
config *.node[*].mobility.z 1.895
config *.shockwave[*].mobility.x 0
config *.shockwave[*].mobility.y 0
config *.shockwave[*].mobility.z 1.895
config seed-set 0
config **.seed 0
config *.node[*].prot.rng-0 2
config *.node[*].appl.rng-0 3
config *.node[*].scenario.rng-0 4
config *.manager.configFile "\"./sumocfg/overtake.sumo.cfg\""
config *.manager.launchConfig "xmldoc(\"./sumocfg/overtake.launchd.xml\")"
config *.node[*].helper_type "\"PositionHelper\""
config *.node[*].scenario.caccC1 0.5
config *.node[*].scenario.caccXi 1
config *.node[*].scenario.caccOmegaN "0.2 Hz"
config *.node[*].scenario.caccSpacing "5 m"
config *.node[*].scenario.engineTau "0.5 s"
config *.node[*].scenario.ploegH "0.5 s"
config *.node[*].scenario.ploegKp 0.2
config *.node[*].scenario.ploegKd 0.7
config *.node[*].scenario.useRealisticEngine false
config *.node[*].scenario.targetController "\"CACC\""
config *.node[*].scenario.accHeadway "0.1 s"
config *.node[*].scenario.leaderHeadway "1.2 s"
config *.node[*].scenario.leaderSpeed "50 kmph"
config *.node[*].appl_type "\"OvertakeApp\""
config *.node[*].appl.*.scalar-recording true
config *.node[*].appl.*.vector-recording true
config *.node[*].appl.overtakeManeuver "\"OvertakeManeuver\""
config *.node[*].protocol_type "\"SimplePlatooningBeaconing\""
config *.node[*].prot.*.scalar-recording true
config *.node[*].prot.*.vector-recording true
config *.node[*].prot.beaconingInterval "0.1 s"
config *.node[*].prot.priority 4
config *.node[*].prot.packetSize 200
config *.node[*].prot.useControllerAcceleration true
config **.traffic_type "\"OvertakeTrafficManager\""
config **.traffic.platoonInsertTime "0.1 s"
config **.traffic.platooningVType "\"vtypeauto\""
config **.numericController 0
config **.traffic.platoonInsertDistance 5m
config **.traffic.platoonInsertHeadway 0s
config **.traffic.platoonLeaderHeadway 1.2s
config **.traffic.platoonASpeed 50kmph
config **.traffic.platoonBSpeed 100kmph
config **.traffic.platoonCSpeed 55kmph
config **.traffic.platoonSizeA 2
config **.traffic.platoonSizeB 1
config **.traffic.platoonSizeC 1
config **.traffic.initialPositionDeltaA 150
config **.traffic.initialPositionDeltaB 50
config **.traffic.initialPositionDeltaC 502
config **.traffic.controller "\"CACC\""
config **.scalar-recording true
config **.vector-recording true

vector 0 Overtake.node[0].mobility posx ETV
vector 1 Overtake.node[0].mobility posy ETV
vector 2 Overtake.node[1].mobility posx ETV
vector 3 Overtake.node[1].mobility posy ETV
vector 4 Overtake.node[2].mobility posx ETV
vector 5 Overtake.node[2].mobility posy ETV
vector 6 Overtake.node[3].mobility posx ETV
vector 7 Overtake.node[3].mobility posy ETV
vector 8 Overtake.node[0].mobility speed ETV
vector 9 Overtake.node[1].mobility speed ETV
vector 10 Overtake.node[2].mobility speed ETV
vector 11 Overtake.node[3].mobility speed ETV
vector 12 Overtake.node[0].mobility acceleration ETV
vector 13 Overtake.node[0].mobility co2emission ETV
vector 14 Overtake.node[1].mobility acceleration ETV
vector 15 Overtake.node[1].mobility co2emission ETV
vector 16 Overtake.node[2].mobility acceleration ETV
vector 17 Overtake.node[2].mobility co2emission ETV
vector 18 Overtake.node[3].mobility acceleration ETV
vector 19 Overtake.node[3].mobility co2emission ETV
vector 20 Overtake.node[0].appl distance ETV
vector 21 Overtake.node[0].appl relativeSpeed ETV
vector 22 Overtake.node[0].appl nodeId ETV
vector 23 Overtake.node[0].appl acceleration ETV
vector 24 Overtake.node[0].appl controllerAcceleration ETV
vector 25 Overtake.node[0].appl speed ETV
vector 26 Overtake.node[0].appl posx ETV
vector 27 Overtake.node[0].appl posy ETV
vector 28 Overtake.node[1].appl distance ETV
vector 29 Overtake.node[1].appl relativeSpeed ETV
vector 30 Overtake.node[1].appl nodeId ETV
vector 31 Overtake.node[1].appl acceleration ETV
vector 32 Overtake.node[1].appl controllerAcceleration ETV
vector 33 Overtake.node[1].appl speed ETV
vector 34 Overtake.node[1].appl posx ETV
vector 35 Overtake.node[1].appl posy ETV
vector 36 Overtake.node[2].appl distance ETV
vector 37 Overtake.node[2].appl relativeSpeed ETV
vector 38 Overtake.node[2].appl nodeId ETV
vector 39 Overtake.node[2].appl acceleration ETV
vector 40 Overtake.node[2].appl controllerAcceleration ETV
vector 41 Overtake.node[2].appl speed ETV
vector 42 Overtake.node[2].appl posx ETV
vector 43 Overtake.node[2].appl posy ETV
vector 44 Overtake.node[3].appl distance ETV
vector 45 Overtake.node[3].appl relativeSpeed ETV
vector 46 Overtake.node[3].appl nodeId ETV
vector 47 Overtake.node[3].appl acceleration ETV
vector 48 Overtake.node[3].appl controllerAcceleration ETV
vector 49 Overtake.node[3].appl speed ETV
vector 50 Overtake.node[3].appl posx ETV
vector 51 Overtake.node[3].appl posy ETV
vector 52 Overtake.node[1].prot leaderDelay ETV
vector 53 Overtake.node[1].prot leaderDelayId ETV
vector 54 Overtake.node[1].prot frontDelay ETV
vector 55 Overtake.node[1].prot frontDelayId ETV
vector 56 Overtake.node[0].prot nodeId ETV
vector 57 Overtake.node[0].prot busyTime ETV
vector 58 Overtake.node[0].prot collisions ETV
vector 59 Overtake.node[1].prot nodeId ETV
vector 60 Overtake.node[1].prot busyTime ETV
vector 61 Overtake.node[1].prot collisions ETV
vector 62 Overtake.node[2].prot nodeId ETV
vector 63 Overtake.node[2].prot busyTime ETV
vector 64 Overtake.node[2].prot collisions ETV
vector 65 Overtake.node[3].prot nodeId ETV
vector 66 Overtake.node[3].prot busyTime ETV
vector 67 Overtake.node[3].prot collisions ETV
48	26	0.21	-0.00218518
48	176	0.31	-0.00213419
48	326	0.41	-0.00205408
48	476	0.51	-0.00195152
48	626	0.61	-0.00183238
48	776	0.71	-0.00170178
48	926	0.81	-0.00156412
48	1076	0.91	-0.00142314
48	1230	1.01	-0.00128196
48	1381	1.11	-0.00114315
48	1532	1.21	-0.00100877
48	1683	1.31	-0.000880447
48	2046	1.41	-0.000759381
48	2196	1.51	-0.000646445
48	2346	1.61	-0.000542204
48	2496	1.71	-0.000446965
48	2646	1.81	-0.000360819
48	2796	1.91	-0.000283678
48	2950	2.01	-0.000215307
48	3100	2.11	-0.000155357
48	3250	2.21	-0.000103391
48	3400	2.31	-5.89069e-05
48	3763	2.41	-2.13575e-05
48	3914	2.51	9.82919e-06
48	4064	2.61	3.52368e-05
48	4214	2.71	5.54479e-05
48	4364	2.81	7.10335e-05
48	4514	2.91	8.25451e-05
48	4668	3.01	9.05081e-05
48	4818	3.11	9.54172e-05
48	4968	3.21	9.7733e-05
48	5118	3.31	9.78798e-05
48	5269	3.41	9.62447e-05
48	5676	3.51	9.31771e-05
48	5826	3.61	8.89894e-05
48	5976	3.71	8.39579e-05
48	6126	3.81	7.83245e-05
48	6276	3.91	7.22983e-05
48	6430	4.01	6.6058e-05
48	6580	4.11	5.9754e-05
48	6730	4.21	5.35107e-05
48	6880	4.31	4.74294e-05
48	7030	4.41	4.15898e-05
48	7393	4.51	3.60534e-05
48	7544	4.61	3.0865e-05
48	7694	4.71	2.60551e-05
48	7844	4.81	2.16419e-05
48	7994	4.91	1.76335e-05
48	8148	5.01	1.40289e-05
48	8298	5.11	1.08202e-05
48	8448	5.21	7.99392e-06
48	8598	5.31	5.532e-06
48	8748	5.41	3.41315e-06
48	8899	5.51	1.61374e-06
48	9262	5.61	1.08654e-07
48	9412	5.71	-1.12799e-06
48	9562	5.81	-2.12224e-06
48	9712	5.91	-2.89981e-06
48	9866	6.01	-3.48567e-06
48	10016	6.11	-3.90376e-06
48	10166	6.21	-4.17673e-06
48	10316	6.31	-4.32574e-06
48	10466	6.41	-4.3704e-06
48	10616	6.51	-4.32865e-06
48	11023	6.61	-4.21676e-06
48	11174	6.71	-4.04934e-06
48	11324	6.81	-3.83937e-06
48	11474	6.91	-3.59826e-06
48	11628	7.01	-3.33592e-06
48	11778	7.11	-3.06089e-06
48	11928	7.21	-2.78036e-06
48	12078	7.31	-2.50036e-06
48	12228	7.41	-2.22582e-06
48	12378	7.51	-1.96068e-06
48	12529	7.61	-1.70801e-06
48	12892	7.71	-1.47009e-06
48	13042	7.81	-1.24855e-06
48	13192	7.91	-1.04441e-06
48	13346	8.01	-8.58219e-07
48	13496	8.11	-6.90082e-07
48	13646	8.21	-5.39774e-07
48	13796	8.31	-4.06788e-07
48	13946	8.41	-2.90397e-07
48	14096	8.51	-1.89707e-07
48	14246	8.61	-1.03704e-07
48	14609	8.71	-3.12912e-08
48	14760	8.81	2.86736e-08
48	14910	8.91	7.73515e-08
48	15064	9.01	1.15897e-07
48	15214	9.11	1.45439e-07
48	15364	9.21	1.67065e-07
48	15514	9.31	1.81809e-07
48	15664	9.41	1.90644e-07
48	15814	9.51	1.94472e-07
48	15964	9.61	1.94124e-07
48	16115	9.71	1.90357e-07
48	16522	9.81	1.83853e-07
48	16672	9.91	1.7522e-07
48	16826	10.01	1.64994e-07
48	16976	10.11	1.53647e-07
48	17126	10.21	1.41582e-07
48	17276	10.31	1.29145e-07
48	17426	10.41	1.16627e-07
48	17576	10.51	1.04265e-07
48	17726	10.61	9.22544e-08
48	17876	10.71	8.07466e-08
48	18239	10.81	6.98579e-08
48	18390	10.91	5.96724e-08
48	18544	11.01	5.02466e-08
48	18694	11.11	4.16129e-08
48	18844	11.21	3.37838e-08
48	18994	11.31	2.67553e-08
48	19144	11.41	2.05096e-08
48	19294	11.51	1.5018e-08
48	19444	11.61	1.02437e-08
48	19594	11.71	6.14335e-09
48	19745	11.81	2.66951e-09
48	20108	11.91	-2.28262e-10
48	20262	12.01	-2.6013e-09
48	20412	12.11	-4.50129e-09
48	20562	12.21	-5.97939e-09
48	20712	12.31	-7.08464e-09
48	20862	12.41	-7.86429e-09
48	21012	12.51	-8.36273e-09
48	21162	12.61	-8.62173e-09
48	21312	12.71	-8.67946e-09
48	21462	12.81	-8.57128e-09
48	21845	12.91	-8.32863e-09
48	22000	13.01	-7.98028e-09
48	22150	13.11	-7.55147e-09
48	22300	13.21	-7.06422e-09
48	22450	13.31	-6.5377e-09
48	22600	13.41	-5.98863e-09
48	22750	13.51	-5.43068e-09
48	22900	13.61	-4.87557e-09
48	23050	13.71	-4.33271e-09
48	23200	13.81	-3.80975e-09
48	23351	13.91	-3.31237e-09
48	23738	14.01	-2.84501e-09
48	23888	14.11	-2.41052e-09
48	24038	14.21	-2.01084e-09
48	24188	14.31	-1.64686e-09
48	24338	14.41	-1.31877e-09
48	24488	14.51	-1.02602e-09
48	24638	14.61	-7.67386e-10
48	24788	14.71	-5.41434e-10
48	24938	14.81	-3.4639e-10
48	25088	14.91	-1.803e-10
48	25499	15.01	-4.06786e-11
48	25650	15.11	7.4607e-11
48	25800	15.21	1.67866e-10
48	25950	15.31	2.41229e-10
48	26100	15.41	2.97184e-10
48	26250	15.51	3.37863e-10
48	26400	15.61	3.65041e-10
48	26550	15.71	3.80851e-10
48	26700	15.81	3.86891e-10
48	26850	15.91	3.85114e-10
48	27004	16.01	3.76588e-10
48	27154	16.11	3.6291e-10
48	27304	16.21	3.45146e-10
48	27454	16.31	3.24363e-10
48	27604	16.41	3.01625e-10
48	27754	16.51	2.77467e-10
48	27904	16.61	2.52598e-10
48	28054	16.71	2.27729e-10
48	28204	16.81	2.03215e-10
48	28354	16.91	1.79412e-10
48	28508	17.01	1.56675e-10
48	28658	17.11	1.35358e-10
48	28808	17.21	1.15286e-10
48	28958	17.31	9.68114e-11
48	29108	17.41	7.99361e-11
48	29258	17.51	6.46594e-11
48	29408	17.61	5.09814e-11
48	29558	17.71	3.89022e-11
48	29708	17.81	2.82441e-11
48	29858	17.91	1.9007e-11
48	30012	18.01	1.10134e-11
48	30162	18.11	4.44089e-12
48	30312	18.21	-1.24345e-12
48	30462	18.31	-5.68434e-12
48	30612	18.41	-9.41469e-12
48	30762	18.51	-1.22569e-11
48	30912	18.61	-1.43885e-11
48	31062	18.71	-1.58096e-11
48	31212	18.81	-1.66978e-11
48	31362	18.91	-1.72307e-11
48	31516	19.01	-1.72307e-11
48	31666	19.11	-1.7053e-11
48	31816	19.21	-1.65201e-11
48	31966	19.31	-1.58096e-11
48	32116	19.41	-1.5099e-11
48	32266	19.51	-1.40332e-11
48	32416	19.61	-1.29674e-11
48	32566	19.71	-1.20792e-11
48	32716	19.81	-1.10134e-11
48	32866	19.91	-9.9476e-12
48	33020	20.01	-8.88178e-12
48	33170	20.11	-7.99361e-12
48	33320	20.21	-6.92779e-12
48	33470	20.31	-5.86198e-12
48	33620	20.41	-4.9738e-12
48	33770	20.51	-4.08562e-12
48	33920	20.61	-3.19744e-12
48	34070	20.71	-2.4869e-12
48	34220	20.81	-1.77636e-12
48	34370	20.91	-1.24345e-12
48	34524	21.01	-7.10543e-13
48	34674	21.11	-1.77636e-13
48	34824	21.21	1.77636e-13
48	34974	21.31	7.10543e-13
48	35124	21.41	1.06581e-12
48	35274	21.51	1.42109e-12
48	35424	21.61	1.59872e-12
48	35574	21.71	1.95399e-12
48	35724	21.81	2.13163e-12
48	35874	21.91	2.30926e-12
48	36028	22.01	2.4869e-12
48	36178	22.11	2.66454e-12
48	36328	22.21	2.84217e-12
48	36478	22.31	3.01981e-12
48	36628	22.41	3.19744e-12
48	36778	22.51	3.37508e-12
48	36928	22.61	3.37508e-12
48	37078	22.71	3.55271e-12
48	37228	22.81	3.55271e-12
48	37378	22.91	3.73035e-12
48	37532	23.01	3.73035e-12
48	37682	23.11	3.90799e-12
48	37832	23.21	3.90799e-12
48	37982	23.31	3.90799e-12
48	38132	23.41	3.90799e-12
48	38282	23.51	4.08562e-12
48	38432	23.61	4.08562e-12
48	38582	23.71	4.08562e-12
48	38732	23.81	4.08562e-12
48	38882	23.91	4.08562e-12
48	39036	24.01	4.26326e-12
48	39186	24.11	4.26326e-12
48	39336	24.21	4.26326e-12
48	39486	24.31	4.26326e-12
48	39636	24.41	4.26326e-12
48	39786	24.51	4.26326e-12
48	39936	24.61	4.26326e-12
48	40086	24.71	4.26326e-12
48	40236	24.81	4.26326e-12
48	40386	24.91	4.26326e-12
48	40540	25.01	4.44089e-12
48	40690	25.11	4.44089e-12
48	40840	25.21	4.44089e-12
48	40990	25.31	4.44089e-12
48	41140	25.41	4.44089e-12
48	41290	25.51	4.44089e-12
48	41440	25.61	4.44089e-12
48	41590	25.71	4.44089e-12
48	41740	25.81	4.44089e-12
48	41890	25.91	4.44089e-12
48	42044	26.01	4.44089e-12
48	42194	26.11	4.44089e-12
48	42344	26.21	4.44089e-12
48	42494	26.31	4.44089e-12
48	42644	26.41	4.44089e-12
48	42794	26.51	4.44089e-12
48	42944	26.61	4.44089e-12
48	43095	26.71	4.44089e-12
48	43245	26.81	4.44089e-12
48	43395	26.91	4.44089e-12
48	43549	27.01	4.44089e-12
48	43699	27.11	4.44089e-12
48	43849	27.21	4.44089e-12
48	43999	27.31	4.44089e-12
48	44149	27.41	4.44089e-12
48	44299	27.51	4.44089e-12
48	44449	27.61	4.44089e-12
48	44599	27.71	4.44089e-12
48	44749	27.81	4.44089e-12
48	44899	27.91	4.44089e-12
48	45053	28.01	4.44089e-12
48	45203	28.11	4.44089e-12
48	45353	28.21	4.44089e-12
48	45503	28.31	4.44089e-12
48	45653	28.41	4.44089e-12
48	45803	28.51	4.44089e-12
48	45953	28.61	4.44089e-12
48	46103	28.71	4.44089e-12
48	46253	28.81	4.44089e-12
48	46403	28.91	4.44089e-12
48	46557	29.01	4.44089e-12
48	46707	29.11	4.44089e-12
48	46857	29.21	4.44089e-12
48	47007	29.31	4.44089e-12
48	47157	29.41	4.44089e-12
48	47307	29.51	4.44089e-12
48	47457	29.61	4.44089e-12
48	47607	29.71	4.44089e-12
48	47757	29.81	4.44089e-12
48	47907	29.91	4.44089e-12
48	48061	30.01	4.44089e-12
48	48211	30.11	4.44089e-12
48	48361	30.21	4.44089e-12
48	48511	30.31	4.44089e-12
48	48661	30.41	4.44089e-12
48	48811	30.51	4.44089e-12
48	48961	30.61	4.44089e-12
48	49111	30.71	4.44089e-12
48	49261	30.81	4.44089e-12
48	49411	30.91	4.44089e-12
48	49565	31.01	4.44089e-12
48	49715	31.11	4.44089e-12
48	49865	31.21	4.44089e-12
48	50015	31.31	4.44089e-12
48	50165	31.41	4.44089e-12
48	50315	31.51	4.44089e-12
48	50465	31.61	4.44089e-12
48	50615	31.71	4.44089e-12
48	50765	31.81	4.44089e-12
48	50915	31.91	4.44089e-12
48	51069	32.01	4.44089e-12
48	51219	32.11	4.44089e-12
48	51369	32.21	4.44089e-12
48	51519	32.31	4.44089e-12
48	51669	32.41	4.44089e-12
48	51819	32.51	4.44089e-12
48	51969	32.61	4.44089e-12
47	26	0.21	-0.000358191
47	176	0.31	-0.000681704
47	326	0.41	-0.00093487
47	476	0.51	-0.00112579
47	626	0.61	-0.00126221
47	776	0.71	-0.00135149
47	926	0.81	-0.00140049
47	1076	0.91	-0.00141557
47	1230	1.01	-0.00140255
47	1381	1.11	-0.00136671
47	1532	1.21	-0.0013128
47	1683	1.31	-0.00124502
47	2046	1.41	-0.0011671
47	2196	1.51	-0.00108223
47	2346	1.61	-0.000993208
47	2496	1.71	-0.000902362
47	2646	1.81	-0.000811651
47	2796	1.91	-0.000722679
47	2950	2.01	-0.000636729
47	3100	2.11	-0.0005548
47	3250	2.21	-0.000477639
47	3400	2.31	-0.000405773
47	3763	2.41	-0.00033954
47	3914	2.51	-0.000279116
47	4064	2.61	-0.000224541
47	4214	2.71	-0.000175743
47	4364	2.81	-0.00013256
47	4514	2.91	-9.47571e-05
47	4668	3.01	-6.2046e-05
47	4818	3.11	-3.40986e-05
47	4968	3.21	-1.05605e-05
47	5118	3.31	8.93844e-06
47	5269	3.41	2.4774e-05
47	5676	3.51	3.73203e-05
47	5826	3.61	4.69433e-05
47	5976	3.71	5.39956e-05
47	6126	3.81	5.88124e-05
47	6276	3.91	6.1709e-05
47	6430	4.01	6.29785e-05
47	6580	4.11	6.28903e-05
47	6730	4.21	6.169e-05
47	6880	4.31	5.95988e-05
47	7030	4.41	5.68144e-05
47	7393	4.51	5.35112e-05
47	7544	4.61	4.98416e-05
47	7694	4.71	4.59373e-05
47	7844	4.81	4.19105e-05
47	7994	4.91	3.78555e-05
47	8148	5.01	3.38499e-05
47	8298	5.11	2.99569e-05
47	8448	5.21	2.62259e-05
47	8598	5.31	2.26948e-05
47	8748	5.41	1.93911e-05
47	8899	5.51	1.6333e-05
47	9262	5.61	1.35314e-05
47	9412	5.71	1.09904e-05
47	9562	5.81	8.70882e-06
47	9712	5.91	6.6809e-06
47	9866	6.01	4.89747e-06
47	10016	6.11	3.3466e-06
47	10166	6.21	2.01432e-06
47	10316	6.31	8.85256e-07
47	10466	6.41	-5.68454e-08
47	10616	6.51	-8.28678e-07
47	11023	6.61	-1.44699e-06
47	11174	6.71	-1.92826e-06
47	11324	6.81	-2.28849e-06
47	11474	6.91	-2.54296e-06
47	11628	7.01	-2.7061e-06
47	11778	7.11	-2.79139e-06
47	11928	7.21	-2.8113e-06
47	12078	7.31	-2.77721e-06
47	12228	7.41	-2.69943e-06
47	12378	7.51	-2.58721e-06
47	12529	7.61	-2.44874e-06
47	12892	7.71	-2.29123e-06
47	13042	7.81	-2.12092e-06
47	13192	7.91	-1.94317e-06
47	13346	8.01	-1.7625e-06
47	13496	8.11	-1.58267e-06
47	13646	8.21	-1.40677e-06
47	13796	8.31	-1.23723e-06
47	13946	8.41	-1.07596e-06
47	14096	8.51	-9.24365e-07
47	14246	8.61	-7.83425e-07
47	14609	8.71	-6.53753e-07
47	14760	8.81	-5.35652e-07
47	14910	8.91	-4.29161e-07
47	15064	9.01	-3.34103e-07
47	15214	9.11	-2.5013e-07
47	15364	9.21	-1.76757e-07
47	15514	9.31	-1.13395e-07
47	15664	9.41	-5.93825e-08
47	15814	9.51	-1.40082e-08
47	15964	9.61	2.34655e-08
47	16115	9.71	5.37865e-08
47	16522	9.81	7.76954e-08
47	16672	9.91	9.59155e-08
47	16826	10.01	1.09142e-07
47	16976	10.11	1.18035e-07
47	17126	10.21	1.23213e-07
47	17276	10.31	1.25251e-07
47	17426	10.41	1.24676e-07
47	17576	10.51	1.21969e-07
47	17726	10.61	1.1756e-07
47	17876	10.71	1.11835e-07
47	18239	10.81	1.05132e-07
47	18390	10.91	9.77479e-08
47	18544	11.01	8.99371e-08
47	18694	11.11	8.19167e-08
47	18844	11.21	7.38678e-08
47	18994	11.31	6.59401e-08
47	19144	11.41	5.82538e-08
47	19294	11.51	5.09036e-08
47	19444	11.61	4.39611e-08
47	19594	11.71	3.7477e-08
47	19745	11.81	3.14856e-08
47	20108	11.91	2.60057e-08
47	20262	12.01	2.10441e-08
47	20412	12.11	1.65965e-08
47	20562	12.21	1.26501e-08
47	20712	12.31	9.1859e-09
47	20862	12.41	6.17906e-09
47	21012	12.51	3.60174e-09
47	21162	12.61	1.42268e-09
47	21312	12.71	-3.90443e-10
47	21462	12.81	-1.87068e-09
47	21845	12.91	-3.05143e-09
47	22000	13.01	-3.96536e-09
47	22150	13.11	-4.64411e-09
47	22300	13.21	-5.11751e-09
47	22450	13.31	-5.41416e-09
47	22600	13.41	-5.56053e-09
47	22750	13.51	-5.5806e-09
47	22900	13.61	-5.49729e-09
47	23050	13.71	-5.32996e-09
47	23200	13.81	-5.09726e-09
47	23351	13.91	-4.81499e-09
47	23738	14.01	-4.49702e-09
47	23888	14.11	-4.15543e-09
47	24038	14.21	-3.80052e-09
47	24188	14.31	-3.44169e-09
47	24338	14.41	-3.08535e-09
47	24488	14.51	-2.73772e-09
47	24638	14.61	-2.40341e-09
47	24788	14.71	-2.08633e-09
47	24938	14.81	-1.78844e-09
47	25088	14.91	-1.51221e-09
47	25499	15.01	-1.25837e-09
47	25650	15.11	-1.02744e-09
47	25800	15.21	-8.19789e-10
47	25950	15.31	-6.34515e-10
47	26100	15.41	-4.71267e-10
47	26250	15.51	-3.28981e-10
47	26400	15.61	-2.06235e-10
47	26550	15.71	-1.02318e-10
47	26700	15.81	-1.45661e-11
47	26850	15.91	5.73763e-11
47	27004	16.01	1.15463e-10
47	27154	16.11	1.61116e-10
47	27304	16.21	1.95577e-10
47	27454	16.31	2.20446e-10
47	27604	16.41	2.36788e-10
47	27754	16.51	2.46025e-10
47	27904	16.61	2.49223e-10
47	28054	16.71	2.47447e-10
47	28204	16.81	2.41407e-10
47	28354	16.91	2.3217e-10
47	28508	17.01	2.20446e-10
47	28658	17.11	2.06768e-10
47	28808	17.21	1.91847e-10
47	28958	17.31	1.75859e-10
47	29108	17.41	1.59872e-10
47	29258	17.51	1.43885e-10
47	29408	17.61	1.27898e-10
47	29558	17.71	1.12976e-10
47	29708	17.81	9.87654e-11
47	29858	17.91	8.49099e-11
47	30012	18.01	7.24754e-11
47	30162	18.11	6.07514e-11
47	30312	18.21	5.00933e-11
47	30462	18.31	4.05009e-11
47	30612	18.41	3.16192e-11
47	30762	18.51	2.43361e-11
47	30912	18.61	1.72307e-11
47	31062	18.71	1.1724e-11
47	31212	18.81	6.39488e-12
47	31362	18.91	2.4869e-12
47	31516	19.01	-1.06581e-12
47	31666	19.11	-4.08562e-12
47	31816	19.21	-5.86198e-12
47	31966	19.31	-7.63833e-12
47	32116	19.41	-9.41469e-12
47	32266	19.51	-1.01252e-11
47	32416	19.61	-1.01252e-11
47	32566	19.71	-1.01252e-11
47	32716	19.81	-1.01252e-11
47	32866	19.91	-1.01252e-11
47	33020	20.01	-1.01252e-11
47	33170	20.11	-1.01252e-11
47	33320	20.21	-1.01252e-11
47	33470	20.31	-1.01252e-11
47	33620	20.41	-9.41469e-12
47	33770	20.51	-8.52651e-12
47	33920	20.61	-7.63833e-12
47	34070	20.71	-6.92779e-12
47	34220	20.81	-6.21725e-12
47	34370	20.91	-5.68434e-12
47	34524	21.01	-5.15143e-12
47	34674	21.11	-4.61853e-12
47	34824	21.21	-4.26326e-12
47	34974	21.31	-3.73035e-12
47	35124	21.41	-3.37508e-12
47	35274	21.51	-3.01981e-12
47	35424	21.61	-2.84217e-12
47	35574	21.71	-2.4869e-12
47	35724	21.81	-2.30926e-12
47	35874	21.91	-2.13163e-12
47	36028	22.01	-1.95399e-12
47	36178	22.11	-1.77636e-12
47	36328	22.21	-1.59872e-12
47	36478	22.31	-1.42109e-12
47	36628	22.41	-1.24345e-12
47	36778	22.51	-1.06581e-12
47	36928	22.61	-1.06581e-12
47	37078	22.71	-8.88178e-13
47	37228	22.81	-8.88178e-13
47	37378	22.91	-7.10543e-13
47	37532	23.01	-7.10543e-13
47	37682	23.11	-5.32907e-13
47	37832	23.21	-5.32907e-13
47	37982	23.31	-5.32907e-13
47	38132	23.41	-5.32907e-13
47	38282	23.51	-3.55271e-13
47	38432	23.61	-3.55271e-13
47	38582	23.71	-3.55271e-13
47	38732	23.81	-3.55271e-13
47	38882	23.91	-3.55271e-13
47	39036	24.01	-1.77636e-13
47	39186	24.11	-1.77636e-13
47	39336	24.21	-1.77636e-13
47	39486	24.31	-1.77636e-13
47	39636	24.41	-1.77636e-13
47	39786	24.51	-1.77636e-13
47	39936	24.61	-1.77636e-13
47	40086	24.71	-1.77636e-13
47	40236	24.81	-1.77636e-13
47	40386	24.91	-1.77636e-13
47	40540	25.01	0
47	40690	25.11	0
47	40840	25.21	0
47	40990	25.31	0
47	41140	25.41	0
47	41290	25.51	0
47	41440	25.61	0
47	41590	25.71	0
47	41740	25.81	0
47	41890	25.91	0
47	42044	26.01	0
47	42194	26.11	0
47	42344	26.21	0
47	42494	26.31	0
47	42644	26.41	0
47	42794	26.51	0
47	42944	26.61	0
47	43095	26.71	0
47	43245	26.81	0
47	43395	26.91	0
47	43549	27.01	0
47	43699	27.11	0
47	43849	27.21	0
47	43999	27.31	0
47	44149	27.41	0
47	44299	27.51	0
47	44449	27.61	0
47	44599	27.71	0
47	44749	27.81	0
47	44899	27.91	0
47	45053	28.01	0
47	45203	28.11	0
47	45353	28.21	0
47	45503	28.31	0
47	45653	28.41	0
47	45803	28.51	0
47	45953	28.61	0
47	46103	28.71	0
47	46253	28.81	0
47	46403	28.91	0
47	46557	29.01	0
47	46707	29.11	0
47	46857	29.21	0
47	47007	29.31	0
47	47157	29.41	0
47	47307	29.51	0
47	47457	29.61	0
47	47607	29.71	0
47	47757	29.81	0
47	47907	29.91	0
47	48061	30.01	0
47	48211	30.11	0
47	48361	30.21	0
47	48511	30.31	0
47	48661	30.41	0
47	48811	30.51	0
47	48961	30.61	0
47	49111	30.71	0
47	49261	30.81	0
47	49411	30.91	0
47	49565	31.01	0
47	49715	31.11	0
47	49865	31.21	0
47	50015	31.31	0
47	50165	31.41	0
47	50315	31.51	0
47	50465	31.61	0
47	50615	31.71	0
47	50765	31.81	0
47	50915	31.91	0
47	51069	32.01	0
47	51219	32.11	0
47	51369	32.21	0
47	51519	32.31	0
47	51669	32.41	0
47	51819	32.51	0
47	51969	32.61	0
51	26	0.21	1.6
51	176	0.31	1.6
51	326	0.41	1.6
51	476	0.51	1.6
51	626	0.61	1.6
51	776	0.71	1.6
51	926	0.81	1.6
51	1076	0.91	1.6
51	1230	1.01	1.6
51	1381	1.11	1.6
51	1532	1.21	1.6
51	1683	1.31	1.6
51	2046	1.41	1.6
51	2196	1.51	1.6
51	2346	1.61	1.6
51	2496	1.71	1.6
51	2646	1.81	1.6
51	2796	1.91	1.6
51	2950	2.01	1.6
51	3100	2.11	1.6
51	3250	2.21	1.6
51	3400	2.31	1.6
51	3763	2.41	1.6
51	3914	2.51	1.6
51	4064	2.61	1.6
51	4214	2.71	1.6
51	4364	2.81	1.6
51	4514	2.91	1.6
51	4668	3.01	1.6
51	4818	3.11	1.6
51	4968	3.21	1.6
51	5118	3.31	1.6
51	5269	3.41	1.6
51	5676	3.51	1.6
51	5826	3.61	1.6
51	5976	3.71	1.6
51	6126	3.81	1.6
51	6276	3.91	1.6
51	6430	4.01	1.6
51	6580	4.11	1.6
51	6730	4.21	1.6
51	6880	4.31	1.6
51	7030	4.41	1.6
51	7393	4.51	1.6
51	7544	4.61	1.6
51	7694	4.71	1.6
51	7844	4.81	1.6
51	7994	4.91	1.6
51	8148	5.01	1.6
51	8298	5.11	1.6
51	8448	5.21	1.6
51	8598	5.31	1.6
51	8748	5.41	1.6
51	8899	5.51	1.6
51	9262	5.61	1.6
51	9412	5.71	1.6
51	9562	5.81	1.6
51	9712	5.91	1.6
51	9866	6.01	1.6
51	10016	6.11	1.6
51	10166	6.21	1.6
51	10316	6.31	1.6
51	10466	6.41	1.6
51	10616	6.51	1.6
51	11023	6.61	1.6
51	11174	6.71	1.6
51	11324	6.81	1.6
51	11474	6.91	1.6
51	11628	7.01	1.6
51	11778	7.11	1.6
51	11928	7.21	1.6
51	12078	7.31	1.6
51	12228	7.41	1.6
51	12378	7.51	1.6
51	12529	7.61	1.6
51	12892	7.71	1.6
51	13042	7.81	1.6
51	13192	7.91	1.6
51	13346	8.01	1.6
51	13496	8.11	1.6
51	13646	8.21	1.6
51	13796	8.31	1.6
51	13946	8.41	1.6
51	14096	8.51	1.6
51	14246	8.61	1.6
51	14609	8.71	1.6
51	14760	8.81	1.6
51	14910	8.91	1.6
51	15064	9.01	1.6
51	15214	9.11	1.6
51	15364	9.21	1.6
51	15514	9.31	1.6
51	15664	9.41	1.6
51	15814	9.51	1.6
51	15964	9.61	1.6
51	16115	9.71	1.6
51	16522	9.81	1.6
51	16672	9.91	1.6
51	16826	10.01	1.6
51	16976	10.11	1.6
51	17126	10.21	1.6
51	17276	10.31	1.6
51	17426	10.41	1.6
51	17576	10.51	1.6
51	17726	10.61	1.6
51	17876	10.71	1.6
51	18239	10.81	1.6
51	18390	10.91	1.6
51	18544	11.01	1.6
51	18694	11.11	1.6
51	18844	11.21	1.6
51	18994	11.31	1.6
51	19144	11.41	1.6
51	19294	11.51	1.6
51	19444	11.61	1.6
51	19594	11.71	1.6
51	19745	11.81	1.6
51	20108	11.91	1.6
51	20262	12.01	1.6
51	20412	12.11	1.6
51	20562	12.21	1.6
51	20712	12.31	1.6
51	20862	12.41	1.6
51	21012	12.51	1.6
51	21162	12.61	1.6
51	21312	12.71	1.6
51	21462	12.81	1.6
51	21845	12.91	1.6
51	22000	13.01	1.6
51	22150	13.11	1.6
51	22300	13.21	1.6
51	22450	13.31	1.6
51	22600	13.41	1.6
51	22750	13.51	1.6
51	22900	13.61	1.6
51	23050	13.71	1.6
51	23200	13.81	1.6
51	23351	13.91	1.6
51	23738	14.01	1.6
51	23888	14.11	1.6
51	24038	14.21	1.6
51	24188	14.31	1.6
51	24338	14.41	1.6
51	24488	14.51	1.6
51	24638	14.61	1.6
51	24788	14.71	1.6
51	24938	14.81	1.6
51	25088	14.91	1.6
51	25499	15.01	1.6
51	25650	15.11	1.6
51	25800	15.21	1.6
51	25950	15.31	1.6
51	26100	15.41	1.6
51	26250	15.51	1.6
51	26400	15.61	1.6
51	26550	15.71	1.6
51	26700	15.81	1.6
51	26850	15.91	1.6
51	27004	16.01	1.6
51	27154	16.11	1.6
51	27304	16.21	1.6
51	27454	16.31	1.6
51	27604	16.41	1.6
51	27754	16.51	1.6
51	27904	16.61	1.6
51	28054	16.71	1.6
51	28204	16.81	1.6
51	28354	16.91	1.6
51	28508	17.01	1.6
51	28658	17.11	1.6
51	28808	17.21	1.6
51	28958	17.31	1.6
51	29108	17.41	1.6
51	29258	17.51	1.6
51	29408	17.61	1.6
51	29558	17.71	1.6
51	29708	17.81	1.6
51	29858	17.91	1.6
51	30012	18.01	1.6
51	30162	18.11	1.6
51	30312	18.21	1.6
51	30462	18.31	1.6
51	30612	18.41	1.6
51	30762	18.51	1.6
51	30912	18.61	1.6
51	31062	18.71	1.6
51	31212	18.81	1.6
51	31362	18.91	1.6
51	31516	19.01	1.6
51	31666	19.11	1.6
51	31816	19.21	1.6
51	31966	19.31	1.6
51	32116	19.41	1.6
51	32266	19.51	1.6
51	32416	19.61	1.6
51	32566	19.71	1.6
51	32716	19.81	1.6
51	32866	19.91	1.6
51	33020	20.01	1.6
51	33170	20.11	1.6
51	33320	20.21	1.6
51	33470	20.31	1.6
51	33620	20.41	1.6
51	33770	20.51	1.6
51	33920	20.61	1.6
51	34070	20.71	1.6
51	34220	20.81	1.6
51	34370	20.91	1.6
51	34524	21.01	1.6
51	34674	21.11	1.6
51	34824	21.21	1.6
51	34974	21.31	1.6
51	35124	21.41	1.6
51	35274	21.51	1.6
51	35424	21.61	1.6
51	35574	21.71	1.6
51	35724	21.81	1.6
51	35874	21.91	1.6
51	36028	22.01	1.6
51	36178	22.11	1.6
51	36328	22.21	1.6
51	36478	22.31	1.6
51	36628	22.41	1.6
51	36778	22.51	1.6
51	36928	22.61	1.6
51	37078	22.71	1.6
51	37228	22.81	1.6
51	37378	22.91	1.6
51	37532	23.01	1.6
51	37682	23.11	1.6
51	37832	23.21	1.6
51	37982	23.31	1.6
51	38132	23.41	1.6
51	38282	23.51	1.6
51	38432	23.61	1.6
51	38582	23.71	1.6
51	38732	23.81	1.6
51	38882	23.91	1.6
51	39036	24.01	1.6
51	39186	24.11	1.6
51	39336	24.21	1.6
51	39486	24.31	1.6
51	39636	24.41	1.6
51	39786	24.51	1.6
51	39936	24.61	1.6
51	40086	24.71	1.6
51	40236	24.81	1.6
51	40386	24.91	1.6
51	40540	25.01	1.6
51	40690	25.11	1.6
51	40840	25.21	1.6
51	40990	25.31	1.6
51	41140	25.41	1.6
51	41290	25.51	1.6
51	41440	25.61	1.6
51	41590	25.71	1.6
51	41740	25.81	1.6
51	41890	25.91	1.6
51	42044	26.01	1.6
51	42194	26.11	1.6
51	42344	26.21	1.6
51	42494	26.31	1.6
51	42644	26.41	1.6
51	42794	26.51	1.6
51	42944	26.61	1.6
51	43095	26.71	1.6
51	43245	26.81	1.6
51	43395	26.91	1.6
51	43549	27.01	1.6
51	43699	27.11	1.6
51	43849	27.21	1.6
51	43999	27.31	1.6
51	44149	27.41	1.6
51	44299	27.51	1.6
51	44449	27.61	1.6
51	44599	27.71	1.6
51	44749	27.81	1.6
51	44899	27.91	1.6
51	45053	28.01	1.6
51	45203	28.11	1.6
51	45353	28.21	1.6
51	45503	28.31	1.6
51	45653	28.41	1.6
51	45803	28.51	1.6
51	45953	28.61	1.6
51	46103	28.71	1.6
51	46253	28.81	1.6
51	46403	28.91	1.6
51	46557	29.01	1.6
51	46707	29.11	1.6
51	46857	29.21	1.6
51	47007	29.31	1.6
51	47157	29.41	1.6
51	47307	29.51	1.6
51	47457	29.61	1.6
51	47607	29.71	1.6
51	47757	29.81	1.6
51	47907	29.91	1.6
51	48061	30.01	1.6
51	48211	30.11	1.6
51	48361	30.21	1.6
51	48511	30.31	1.6
51	48661	30.41	1.6
51	48811	30.51	1.6
51	48961	30.61	1.6
51	49111	30.71	1.6
51	49261	30.81	1.6
51	49411	30.91	1.6
51	49565	31.01	1.6
51	49715	31.11	1.6
51	49865	31.21	1.6
51	50015	31.31	1.6
51	50165	31.41	1.6
51	50315	31.51	1.6
51	50465	31.61	1.6
51	50615	31.71	1.6
51	50765	31.81	1.6
51	50915	31.91	1.6
51	51069	32.01	1.6
51	51219	32.11	1.6
51	51369	32.21	1.6
51	51519	32.31	1.6
51	51669	32.41	1.6
51	51819	32.51	1.6
51	51969	32.61	1.6
50	26	0.21	496.625
50	176	0.31	495.097
50	326	0.41	493.569
50	476	0.51	492.041
50	626	0.61	490.513
50	776	0.71	488.985
50	926	0.81	487.457
50	1076	0.91	485.929
50	1230	1.01	484.401
50	1381	1.11	482.873
50	1532	1.21	481.345
50	1683	1.31	479.817
50	2046	1.41	478.29
50	2196	1.51	476.762
50	2346	1.61	475.234
50	2496	1.71	473.706
50	2646	1.81	472.178
50	2796	1.91	470.65
50	2950	2.01	469.123
50	3100	2.11	467.595
50	3250	2.21	466.067
50	3400	2.31	464.539
50	3763	2.41	463.011
50	3914	2.51	461.484
50	4064	2.61	459.956
50	4214	2.71	458.428
50	4364	2.81	456.9
50	4514	2.91	455.373
50	4668	3.01	453.845
50	4818	3.11	452.317
50	4968	3.21	450.789
50	5118	3.31	449.262
50	5269	3.41	447.734
50	5676	3.51	446.206
50	5826	3.61	444.678
50	5976	3.71	443.15
50	6126	3.81	441.623
50	6276	3.91	440.095
50	6430	4.01	438.567
50	6580	4.11	437.039
50	6730	4.21	435.512
50	6880	4.31	433.984
50	7030	4.41	432.456
50	7393	4.51	430.928
50	7544	4.61	429.4
50	7694	4.71	427.873
50	7844	4.81	426.345
50	7994	4.91	424.817
50	8148	5.01	423.289
50	8298	5.11	421.762
50	8448	5.21	420.234
50	8598	5.31	418.706
50	8748	5.41	417.178
50	8899	5.51	415.65
50	9262	5.61	414.123
50	9412	5.71	412.595
50	9562	5.81	411.067
50	9712	5.91	409.539
50	9866	6.01	408.012
50	10016	6.11	406.484
50	10166	6.21	404.956
50	10316	6.31	403.428
50	10466	6.41	401.9
50	10616	6.51	400.373
50	11023	6.61	398.845
50	11174	6.71	397.317
50	11324	6.81	395.789
50	11474	6.91	394.262
50	11628	7.01	392.734
50	11778	7.11	391.206
50	11928	7.21	389.678
50	12078	7.31	388.15
50	12228	7.41	386.623
50	12378	7.51	385.095
50	12529	7.61	383.567
50	12892	7.71	382.039
50	13042	7.81	380.512
50	13192	7.91	378.984
50	13346	8.01	377.456
50	13496	8.11	375.928
50	13646	8.21	374.4
50	13796	8.31	372.873
50	13946	8.41	371.345
50	14096	8.51	369.817
50	14246	8.61	368.289
50	14609	8.71	366.762
50	14760	8.81	365.234
50	14910	8.91	363.706
50	15064	9.01	362.178
50	15214	9.11	360.65
50	15364	9.21	359.123
50	15514	9.31	357.595
50	15664	9.41	356.067
50	15814	9.51	354.539
50	15964	9.61	353.011
50	16115	9.71	351.484
50	16522	9.81	349.956
50	16672	9.91	348.428
50	16826	10.01	346.9
50	16976	10.11	345.373
50	17126	10.21	343.845
50	17276	10.31	342.317
50	17426	10.41	340.789
50	17576	10.51	339.261
50	17726	10.61	337.734
50	17876	10.71	336.206
50	18239	10.81	334.678
50	18390	10.91	333.15
50	18544	11.01	331.623
50	18694	11.11	330.095
50	18844	11.21	328.567
50	18994	11.31	327.039
50	19144	11.41	325.511
50	19294	11.51	323.984
50	19444	11.61	322.456
50	19594	11.71	320.928
50	19745	11.81	319.4
50	20108	11.91	317.873
50	20262	12.01	316.345
50	20412	12.11	314.817
50	20562	12.21	313.289
50	20712	12.31	311.761
50	20862	12.41	310.234
50	21012	12.51	308.706
50	21162	12.61	307.178
50	21312	12.71	305.65
50	21462	12.81	304.123
50	21845	12.91	302.595
50	22000	13.01	301.067
50	22150	13.11	299.539
50	22300	13.21	298.011
50	22450	13.31	296.484
50	22600	13.41	294.956
50	22750	13.51	293.428
50	22900	13.61	291.9
50	23050	13.71	290.373
50	23200	13.81	288.845
50	23351	13.91	287.317
50	23738	14.01	285.789
50	23888	14.11	284.261
50	24038	14.21	282.734
50	24188	14.31	281.206
50	24338	14.41	279.678
50	24488	14.51	278.15
50	24638	14.61	276.622
50	24788	14.71	275.095
50	24938	14.81	273.567
50	25088	14.91	272.039
50	25499	15.01	270.511
50	25650	15.11	268.984
50	25800	15.21	267.456
50	25950	15.31	265.928
50	26100	15.41	264.4
50	26250	15.51	262.872
50	26400	15.61	261.345
50	26550	15.71	259.817
50	26700	15.81	258.289
50	26850	15.91	256.761
50	27004	16.01	255.234
50	27154	16.11	253.706
50	27304	16.21	252.178
50	27454	16.31	250.65
50	27604	16.41	249.122
50	27754	16.51	247.595
50	27904	16.61	246.067
50	28054	16.71	244.539
50	28204	16.81	243.011
50	28354	16.91	241.484
50	28508	17.01	239.956
50	28658	17.11	238.428
50	28808	17.21	236.9
50	28958	17.31	235.372
50	29108	17.41	233.845
50	29258	17.51	232.317
50	29408	17.61	230.789
50	29558	17.71	229.261
50	29708	17.81	227.734
50	29858	17.91	226.206
50	30012	18.01	224.678
50	30162	18.11	223.15
50	30312	18.21	221.622
50	30462	18.31	220.095
50	30612	18.41	218.567
50	30762	18.51	217.039
50	30912	18.61	215.511
50	31062	18.71	213.984
50	31212	18.81	212.456
50	31362	18.91	210.928
50	31516	19.01	209.4
50	31666	19.11	207.872
50	31816	19.21	206.345
50	31966	19.31	204.817
50	32116	19.41	203.289
50	32266	19.51	201.761
50	32416	19.61	200.233
50	32566	19.71	198.706
50	32716	19.81	197.178
50	32866	19.91	195.65
50	33020	20.01	194.122
50	33170	20.11	192.595
50	33320	20.21	191.067
50	33470	20.31	189.539
50	33620	20.41	188.011
50	33770	20.51	186.483
50	33920	20.61	184.956
50	34070	20.71	183.428
50	34220	20.81	181.9
50	34370	20.91	180.372
50	34524	21.01	178.845
50	34674	21.11	177.317
50	34824	21.21	175.789
50	34974	21.31	174.261
50	35124	21.41	172.733
50	35274	21.51	171.206
50	35424	21.61	169.678
50	35574	21.71	168.15
50	35724	21.81	166.622
50	35874	21.91	165.095
50	36028	22.01	163.567
50	36178	22.11	162.039
50	36328	22.21	160.511
50	36478	22.31	158.983
50	36628	22.41	157.456
50	36778	22.51	155.928
50	36928	22.61	154.4
50	37078	22.71	152.872
50	37228	22.81	151.345
50	37378	22.91	149.817
50	37532	23.01	148.289
50	37682	23.11	146.761
50	37832	23.21	145.233
50	37982	23.31	143.706
50	38132	23.41	142.178
50	38282	23.51	140.65
50	38432	23.61	139.122
50	38582	23.71	137.595
50	38732	23.81	136.067
50	38882	23.91	134.539
50	39036	24.01	133.011
50	39186	24.11	131.483
50	39336	24.21	129.956
50	39486	24.31	128.428
50	39636	24.41	126.9
50	39786	24.51	125.372
50	39936	24.61	123.844
50	40086	24.71	122.317
50	40236	24.81	120.789
50	40386	24.91	119.261
50	40540	25.01	117.733
50	40690	25.11	116.206
50	40840	25.21	114.678
50	40990	25.31	113.15
50	41140	25.41	111.622
50	41290	25.51	110.094
50	41440	25.61	108.567
50	41590	25.71	107.039
50	41740	25.81	105.511
50	41890	25.91	103.983
50	42044	26.01	102.456
50	42194	26.11	100.928
50	42344	26.21	99.4
50	42494	26.31	97.8722
50	42644	26.41	96.3444
50	42794	26.51	94.8167
50	42944	26.61	93.2889
50	43095	26.71	91.7611
50	43245	26.81	90.2333
50	43395	26.91	88.7055
50	43549	27.01	87.1778
50	43699	27.11	85.65
50	43849	27.21	84.1222
50	43999	27.31	82.5944
50	44149	27.41	81.0666
50	44299	27.51	79.5389
50	44449	27.61	78.0111
50	44599	27.71	76.4833
50	44749	27.81	74.9555
50	44899	27.91	73.4277
50	45053	28.01	71.9
50	45203	28.11	70.3722
50	45353	28.21	68.8444
50	45503	28.31	67.3166
50	45653	28.41	65.7888
50	45803	28.51	64.2611
50	45953	28.61	62.7333
50	46103	28.71	61.2055
50	46253	28.81	59.6777
50	46403	28.91	58.1499
50	46557	29.01	56.6222
50	46707	29.11	55.0944
50	46857	29.21	53.5666
50	47007	29.31	52.0388
50	47157	29.41	50.511
50	47307	29.51	48.9833
50	47457	29.61	47.4555
50	47607	29.71	45.9277
50	47757	29.81	44.3999
50	47907	29.91	42.8721
50	48061	30.01	41.3444
50	48211	30.11	39.8166
50	48361	30.21	38.2888
50	48511	30.31	36.761
50	48661	30.41	35.2332
50	48811	30.51	33.7055
50	48961	30.61	32.1777
50	49111	30.71	30.6499
50	49261	30.81	29.1221
50	49411	30.91	27.5943
50	49565	31.01	26.0666
50	49715	31.11	24.5388
50	49865	31.21	23.011
50	50015	31.31	21.4832
50	50165	31.41	19.9554
50	50315	31.51	18.4277
50	50465	31.61	16.8999
50	50615	31.71	15.3721
50	50765	31.81	13.8443
50	50915	31.91	12.3165
50	51069	32.01	10.7888
50	51219	32.11	9.26099
50	51369	32.21	7.73321
50	51519	32.31	6.20543
50	51669	32.41	4.67765
50	51819	32.51	3.14987
50	51969	32.61	1.62209
49	26	0.21	15.28
49	176	0.31	15.2799
49	326	0.41	15.2798
49	476	0.51	15.2797
49	626	0.61	15.2796
49	776	0.71	15.2795
49	926	0.81	15.2794
49	1076	0.91	15.2792
49	1230	1.01	15.2791
49	1381	1.11	15.2789
49	1532	1.21	15.2788
49	1683	1.31	15.2787
49	2046	1.41	15.2785
49	2196	1.51	15.2784
49	2346	1.61	15.2783
49	2496	1.71	15.2782
49	2646	1.81	15.2782
49	2796	1.91	15.2781
49	2950	2.01	15.278
49	3100	2.11	15.2779
49	3250	2.21	15.2779
49	3400	2.31	15.2779
49	3763	2.41	15.2778
49	3914	2.51	15.2778
49	4064	2.61	15.2778
49	4214	2.71	15.2777
49	4364	2.81	15.2777
49	4514	2.91	15.2777
49	4668	3.01	15.2777
49	4818	3.11	15.2777
49	4968	3.21	15.2777
49	5118	3.31	15.2777
49	5269	3.41	15.2777
49	5676	3.51	15.2777
49	5826	3.61	15.2777
49	5976	3.71	15.2777
49	6126	3.81	15.2777
49	6276	3.91	15.2777
49	6430	4.01	15.2777
49	6580	4.11	15.2777
49	6730	4.21	15.2777
49	6880	4.31	15.2778
49	7030	4.41	15.2778
49	7393	4.51	15.2778
49	7544	4.61	15.2778
49	7694	4.71	15.2778
49	7844	4.81	15.2778
49	7994	4.91	15.2778
49	8148	5.01	15.2778
49	8298	5.11	15.2778
49	8448	5.21	15.2778
49	8598	5.31	15.2778
49	8748	5.41	15.2778
49	8899	5.51	15.2778
49	9262	5.61	15.2778
49	9412	5.71	15.2778
49	9562	5.81	15.2778
49	9712	5.91	15.2778
49	9866	6.01	15.2778
49	10016	6.11	15.2778
49	10166	6.21	15.2778
49	10316	6.31	15.2778
49	10466	6.41	15.2778
49	10616	6.51	15.2778
49	11023	6.61	15.2778
49	11174	6.71	15.2778
49	11324	6.81	15.2778
49	11474	6.91	15.2778
49	11628	7.01	15.2778
49	11778	7.11	15.2778
49	11928	7.21	15.2778
49	12078	7.31	15.2778
49	12228	7.41	15.2778
49	12378	7.51	15.2778
49	12529	7.61	15.2778
49	12892	7.71	15.2778
49	13042	7.81	15.2778
49	13192	7.91	15.2778
49	13346	8.01	15.2778
49	13496	8.11	15.2778
49	13646	8.21	15.2778
49	13796	8.31	15.2778
49	13946	8.41	15.2778
49	14096	8.51	15.2778
49	14246	8.61	15.2778
49	14609	8.71	15.2778
49	14760	8.81	15.2778
49	14910	8.91	15.2778
49	15064	9.01	15.2778
49	15214	9.11	15.2778
49	15364	9.21	15.2778
49	15514	9.31	15.2778
49	15664	9.41	15.2778
49	15814	9.51	15.2778
49	15964	9.61	15.2778
49	16115	9.71	15.2778
49	16522	9.81	15.2778
49	16672	9.91	15.2778
49	16826	10.01	15.2778
49	16976	10.11	15.2778
49	17126	10.21	15.2778
49	17276	10.31	15.2778
49	17426	10.41	15.2778
49	17576	10.51	15.2778
49	17726	10.61	15.2778
49	17876	10.71	15.2778
49	18239	10.81	15.2778
49	18390	10.91	15.2778
49	18544	11.01	15.2778
49	18694	11.11	15.2778
49	18844	11.21	15.2778
49	18994	11.31	15.2778
49	19144	11.41	15.2778
49	19294	11.51	15.2778
49	19444	11.61	15.2778
49	19594	11.71	15.2778
49	19745	11.81	15.2778
49	20108	11.91	15.2778
49	20262	12.01	15.2778
49	20412	12.11	15.2778
49	20562	12.21	15.2778
49	20712	12.31	15.2778
49	20862	12.41	15.2778
49	21012	12.51	15.2778
49	21162	12.61	15.2778
49	21312	12.71	15.2778
49	21462	12.81	15.2778
49	21845	12.91	15.2778
49	22000	13.01	15.2778
49	22150	13.11	15.2778
49	22300	13.21	15.2778
49	22450	13.31	15.2778
49	22600	13.41	15.2778
49	22750	13.51	15.2778
49	22900	13.61	15.2778
49	23050	13.71	15.2778
49	23200	13.81	15.2778
49	23351	13.91	15.2778
49	23738	14.01	15.2778
49	23888	14.11	15.2778
49	24038	14.21	15.2778
49	24188	14.31	15.2778
49	24338	14.41	15.2778
49	24488	14.51	15.2778
49	24638	14.61	15.2778
49	24788	14.71	15.2778
49	24938	14.81	15.2778
49	25088	14.91	15.2778
49	25499	15.01	15.2778
49	25650	15.11	15.2778
49	25800	15.21	15.2778
49	25950	15.31	15.2778
49	26100	15.41	15.2778
49	26250	15.51	15.2778
49	26400	15.61	15.2778
49	26550	15.71	15.2778
49	26700	15.81	15.2778
49	26850	15.91	15.2778
49	27004	16.01	15.2778
49	27154	16.11	15.2778
49	27304	16.21	15.2778
49	27454	16.31	15.2778
49	27604	16.41	15.2778
49	27754	16.51	15.2778
49	27904	16.61	15.2778
49	28054	16.71	15.2778
49	28204	16.81	15.2778
49	28354	16.91	15.2778
49	28508	17.01	15.2778
49	28658	17.11	15.2778
49	28808	17.21	15.2778
49	28958	17.31	15.2778
49	29108	17.41	15.2778
49	29258	17.51	15.2778
49	29408	17.61	15.2778
49	29558	17.71	15.2778
49	29708	17.81	15.2778
49	29858	17.91	15.2778
49	30012	18.01	15.2778
49	30162	18.11	15.2778
49	30312	18.21	15.2778
49	30462	18.31	15.2778
49	30612	18.41	15.2778
49	30762	18.51	15.2778
49	30912	18.61	15.2778
49	31062	18.71	15.2778
49	31212	18.81	15.2778
49	31362	18.91	15.2778
49	31516	19.01	15.2778
49	31666	19.11	15.2778
49	31816	19.21	15.2778
49	31966	19.31	15.2778
49	32116	19.41	15.2778
49	32266	19.51	15.2778
49	32416	19.61	15.2778
49	32566	19.71	15.2778
49	32716	19.81	15.2778
49	32866	19.91	15.2778
49	33020	20.01	15.2778
49	33170	20.11	15.2778
49	33320	20.21	15.2778
49	33470	20.31	15.2778
49	33620	20.41	15.2778
49	33770	20.51	15.2778
49	33920	20.61	15.2778
49	34070	20.71	15.2778
49	34220	20.81	15.2778
49	34370	20.91	15.2778
49	34524	21.01	15.2778
49	34674	21.11	15.2778
49	34824	21.21	15.2778
49	34974	21.31	15.2778
49	35124	21.41	15.2778
49	35274	21.51	15.2778
49	35424	21.61	15.2778
49	35574	21.71	15.2778
49	35724	21.81	15.2778
49	35874	21.91	15.2778
49	36028	22.01	15.2778
49	36178	22.11	15.2778
49	36328	22.21	15.2778
49	36478	22.31	15.2778
49	36628	22.41	15.2778
49	36778	22.51	15.2778
49	36928	22.61	15.2778
49	37078	22.71	15.2778
49	37228	22.81	15.2778
49	37378	22.91	15.2778
49	37532	23.01	15.2778
49	37682	23.11	15.2778
49	37832	23.21	15.2778
49	37982	23.31	15.2778
49	38132	23.41	15.2778
49	38282	23.51	15.2778
49	38432	23.61	15.2778
49	38582	23.71	15.2778
49	38732	23.81	15.2778
49	38882	23.91	15.2778
49	39036	24.01	15.2778
49	39186	24.11	15.2778
49	39336	24.21	15.2778
49	39486	24.31	15.2778
49	39636	24.41	15.2778
49	39786	24.51	15.2778
49	39936	24.61	15.2778
49	40086	24.71	15.2778
49	40236	24.81	15.2778
49	40386	24.91	15.2778
49	40540	25.01	15.2778
49	40690	25.11	15.2778
49	40840	25.21	15.2778
49	40990	25.31	15.2778
49	41140	25.41	15.2778
49	41290	25.51	15.2778
49	41440	25.61	15.2778
49	41590	25.71	15.2778
49	41740	25.81	15.2778
49	41890	25.91	15.2778
49	42044	26.01	15.2778
49	42194	26.11	15.2778
49	42344	26.21	15.2778
49	42494	26.31	15.2778
49	42644	26.41	15.2778
49	42794	26.51	15.2778
49	42944	26.61	15.2778
49	43095	26.71	15.2778
49	43245	26.81	15.2778
49	43395	26.91	15.2778
49	43549	27.01	15.2778
49	43699	27.11	15.2778
49	43849	27.21	15.2778
49	43999	27.31	15.2778
49	44149	27.41	15.2778
49	44299	27.51	15.2778
49	44449	27.61	15.2778
49	44599	27.71	15.2778
49	44749	27.81	15.2778
49	44899	27.91	15.2778
49	45053	28.01	15.2778
49	45203	28.11	15.2778
49	45353	28.21	15.2778
49	45503	28.31	15.2778
49	45653	28.41	15.2778
49	45803	28.51	15.2778
49	45953	28.61	15.2778
49	46103	28.71	15.2778
49	46253	28.81	15.2778
49	46403	28.91	15.2778
49	46557	29.01	15.2778
49	46707	29.11	15.2778
49	46857	29.21	15.2778
49	47007	29.31	15.2778
49	47157	29.41	15.2778
49	47307	29.51	15.2778
49	47457	29.61	15.2778
49	47607	29.71	15.2778
49	47757	29.81	15.2778
49	47907	29.91	15.2778
49	48061	30.01	15.2778
49	48211	30.11	15.2778
49	48361	30.21	15.2778
49	48511	30.31	15.2778
49	48661	30.41	15.2778
49	48811	30.51	15.2778
49	48961	30.61	15.2778
49	49111	30.71	15.2778
49	49261	30.81	15.2778
49	49411	30.91	15.2778
49	49565	31.01	15.2778
49	49715	31.11	15.2778
49	49865	31.21	15.2778
49	50015	31.31	15.2778
49	50165	31.41	15.2778
49	50315	31.51	15.2778
49	50465	31.61	15.2778
49	50615	31.71	15.2778
49	50765	31.81	15.2778
49	50915	31.91	15.2778
49	51069	32.01	15.2778
49	51219	32.11	15.2778
49	51369	32.21	15.2778
49	51519	32.31	15.2778
49	51669	32.41	15.2778
49	51819	32.51	15.2778
49	51969	32.61	15.2778
45	26	0.21	0
45	176	0.31	0
45	326	0.41	0
45	476	0.51	0
45	626	0.61	0
45	776	0.71	0
45	926	0.81	0
45	1076	0.91	0
45	1230	1.01	0
45	1381	1.11	0
45	1532	1.21	0
45	1683	1.31	0
45	2046	1.41	0
45	2196	1.51	0
45	2346	1.61	0
45	2496	1.71	0
45	2646	1.81	0
45	2796	1.91	0
45	2950	2.01	0
45	3100	2.11	0
45	3250	2.21	0
45	3400	2.31	0
45	3763	2.41	0
45	3914	2.51	0
45	4064	2.61	0
45	4214	2.71	0
45	4364	2.81	0
45	4514	2.91	0
45	4668	3.01	0
45	4818	3.11	0
45	4968	3.21	0
45	5118	3.31	0
45	5269	3.41	0
45	5676	3.51	0
45	5826	3.61	0
45	5976	3.71	0
45	6126	3.81	0
45	6276	3.91	0
45	6430	4.01	0
45	6580	4.11	0
45	6730	4.21	0
45	6880	4.31	0
45	7030	4.41	0
45	7393	4.51	0
45	7544	4.61	0
45	7694	4.71	0
45	7844	4.81	0
45	7994	4.91	0
45	8148	5.01	0
45	8298	5.11	0
45	8448	5.21	0
45	8598	5.31	0
45	8748	5.41	0
45	8899	5.51	0
45	9262	5.61	0
45	9412	5.71	0
45	9562	5.81	0
45	9712	5.91	0
45	9866	6.01	0
45	10016	6.11	0
45	10166	6.21	0
45	10316	6.31	0
45	10466	6.41	0
45	10616	6.51	0
45	11023	6.61	0
45	11174	6.71	0
45	11324	6.81	0
45	11474	6.91	0
45	11628	7.01	0
45	11778	7.11	0
45	11928	7.21	0
45	12078	7.31	0
45	12228	7.41	0
45	12378	7.51	0
45	12529	7.61	0
45	12892	7.71	0
45	13042	7.81	0
45	13192	7.91	0
45	13346	8.01	0
45	13496	8.11	0
45	13646	8.21	0
45	13796	8.31	0
45	13946	8.41	0
45	14096	8.51	0
45	14246	8.61	0
45	14609	8.71	0
45	14760	8.81	0
45	14910	8.91	0
45	15064	9.01	0
45	15214	9.11	0
45	15364	9.21	0
45	15514	9.31	0
45	15664	9.41	0
45	15814	9.51	0
45	15964	9.61	0
45	16115	9.71	0
45	16522	9.81	0
45	16672	9.91	0
45	16826	10.01	0
45	16976	10.11	0
45	17126	10.21	0
45	17276	10.31	0
45	17426	10.41	0
45	17576	10.51	0
45	17726	10.61	0
45	17876	10.71	0
45	18239	10.81	0
45	18390	10.91	0
45	18544	11.01	0
45	18694	11.11	0
45	18844	11.21	0
45	18994	11.31	0
45	19144	11.41	0
45	19294	11.51	0
45	19444	11.61	0
45	19594	11.71	0
45	19745	11.81	0
45	20108	11.91	0
45	20262	12.01	0
45	20412	12.11	0
45	20562	12.21	0
45	20712	12.31	0
45	20862	12.41	0
45	21012	12.51	0
45	21162	12.61	0
45	21312	12.71	0
45	21462	12.81	0
45	21845	12.91	0
45	22000	13.01	0
45	22150	13.11	0
45	22300	13.21	0
45	22450	13.31	0
45	22600	13.41	0
45	22750	13.51	0
45	22900	13.61	0
45	23050	13.71	0
45	23200	13.81	0
45	23351	13.91	0
45	23738	14.01	0
45	23888	14.11	0
45	24038	14.21	0
45	24188	14.31	0
45	24338	14.41	0
45	24488	14.51	0
45	24638	14.61	0
45	24788	14.71	0
45	24938	14.81	0
45	25088	14.91	0
45	25499	15.01	0
45	25650	15.11	0
45	25800	15.21	0
45	25950	15.31	0
45	26100	15.41	0
45	26250	15.51	0
45	26400	15.61	0
45	26550	15.71	0
45	26700	15.81	0
45	26850	15.91	0
45	27004	16.01	0
45	27154	16.11	0
45	27304	16.21	0
45	27454	16.31	0
45	27604	16.41	0
45	27754	16.51	0
45	27904	16.61	0
45	28054	16.71	0
45	28204	16.81	0
45	28354	16.91	0
45	28508	17.01	0
45	28658	17.11	0
45	28808	17.21	0
45	28958	17.31	0
45	29108	17.41	0
45	29258	17.51	0
45	29408	17.61	0
45	29558	17.71	0
45	29708	17.81	0
45	29858	17.91	0
45	30012	18.01	0
45	30162	18.11	0
45	30312	18.21	0
45	30462	18.31	0
45	30612	18.41	0
45	30762	18.51	0
45	30912	18.61	0
45	31062	18.71	0
45	31212	18.81	0
45	31362	18.91	0
45	31516	19.01	0
45	31666	19.11	0
45	31816	19.21	0
45	31966	19.31	0
45	32116	19.41	0
45	32266	19.51	0
45	32416	19.61	0
45	32566	19.71	0
45	32716	19.81	0
45	32866	19.91	0
45	33020	20.01	0
45	33170	20.11	0
45	33320	20.21	0
45	33470	20.31	0
45	33620	20.41	0
45	33770	20.51	0
45	33920	20.61	0
45	34070	20.71	0
45	34220	20.81	0
45	34370	20.91	0
45	34524	21.01	0
45	34674	21.11	0
45	34824	21.21	0
45	34974	21.31	0
45	35124	21.41	0
45	35274	21.51	0
45	35424	21.61	0
45	35574	21.71	0
45	35724	21.81	0
45	35874	21.91	0
45	36028	22.01	0
45	36178	22.11	0
45	36328	22.21	0
45	36478	22.31	0
45	36628	22.41	0
45	36778	22.51	0
45	36928	22.61	0
45	37078	22.71	0
45	37228	22.81	0
45	37378	22.91	0
45	37532	23.01	0
45	37682	23.11	0
45	37832	23.21	0
45	37982	23.31	0
45	38132	23.41	0
45	38282	23.51	0
45	38432	23.61	0
45	38582	23.71	0
45	38732	23.81	0
45	38882	23.91	0
45	39036	24.01	0
45	39186	24.11	0
45	39336	24.21	0
45	39486	24.31	0
45	39636	24.41	0
45	39786	24.51	0
45	39936	24.61	0
45	40086	24.71	0
45	40236	24.81	0
45	40386	24.91	0
45	40540	25.01	0
45	40690	25.11	0
45	40840	25.21	0
45	40990	25.31	0
45	41140	25.41	0
45	41290	25.51	0
45	41440	25.61	0
45	41590	25.71	0
45	41740	25.81	0
45	41890	25.91	0
45	42044	26.01	0
45	42194	26.11	0
45	42344	26.21	0
45	42494	26.31	0
45	42644	26.41	0
45	42794	26.51	0
45	42944	26.61	0
45	43095	26.71	0
45	43245	26.81	0
45	43395	26.91	0
45	43549	27.01	0
45	43699	27.11	0
45	43849	27.21	0
45	43999	27.31	0
45	44149	27.41	0
45	44299	27.51	0
45	44449	27.61	0
45	44599	27.71	0
45	44749	27.81	0
45	44899	27.91	0
45	45053	28.01	0
45	45203	28.11	0
45	45353	28.21	0
45	45503	28.31	0
45	45653	28.41	0
45	45803	28.51	0
45	45953	28.61	0
45	46103	28.71	0
45	46253	28.81	0
45	46403	28.91	0
45	46557	29.01	0
45	46707	29.11	0
45	46857	29.21	0
45	47007	29.31	0
45	47157	29.41	0
45	47307	29.51	0
45	47457	29.61	0
45	47607	29.71	0
45	47757	29.81	0
45	47907	29.91	0
45	48061	30.01	0
45	48211	30.11	0
45	48361	30.21	0
45	48511	30.31	0
45	48661	30.41	0
45	48811	30.51	0
45	48961	30.61	0
45	49111	30.71	0
45	49261	30.81	0
45	49411	30.91	0
45	49565	31.01	0
45	49715	31.11	0
45	49865	31.21	0
45	50015	31.31	0
45	50165	31.41	0
45	50315	31.51	0
45	50465	31.61	0
45	50615	31.71	0
45	50765	31.81	0
45	50915	31.91	0
45	51069	32.01	0
45	51219	32.11	0
45	51369	32.21	0
45	51519	32.31	0
45	51669	32.41	0
45	51819	32.51	0
45	51969	32.61	0
44	26	0.21	-1
44	176	0.31	-1
44	326	0.41	-1
44	476	0.51	-1
44	626	0.61	-1
44	776	0.71	-1
44	926	0.81	-1
44	1076	0.91	-1
44	1230	1.01	-1
44	1381	1.11	-1
44	1532	1.21	-1
44	1683	1.31	-1
44	2046	1.41	-1
44	2196	1.51	-1
44	2346	1.61	-1
44	2496	1.71	-1
44	2646	1.81	-1
44	2796	1.91	-1
44	2950	2.01	-1
44	3100	2.11	-1
44	3250	2.21	-1
44	3400	2.31	-1
44	3763	2.41	-1
44	3914	2.51	-1
44	4064	2.61	-1
44	4214	2.71	-1
44	4364	2.81	-1
44	4514	2.91	-1
44	4668	3.01	-1
44	4818	3.11	-1
44	4968	3.21	-1
44	5118	3.31	-1
44	5269	3.41	-1
44	5676	3.51	-1
44	5826	3.61	-1
44	5976	3.71	-1
44	6126	3.81	-1
44	6276	3.91	-1
44	6430	4.01	-1
44	6580	4.11	-1
44	6730	4.21	-1
44	6880	4.31	-1
44	7030	4.41	-1
44	7393	4.51	-1
44	7544	4.61	-1
44	7694	4.71	-1
44	7844	4.81	-1
44	7994	4.91	-1
44	8148	5.01	-1
44	8298	5.11	-1
44	8448	5.21	-1
44	8598	5.31	-1
44	8748	5.41	-1
44	8899	5.51	-1
44	9262	5.61	-1
44	9412	5.71	-1
44	9562	5.81	-1
44	9712	5.91	-1
44	9866	6.01	-1
44	10016	6.11	-1
44	10166	6.21	-1
44	10316	6.31	-1
44	10466	6.41	-1
44	10616	6.51	-1
44	11023	6.61	-1
44	11174	6.71	-1
44	11324	6.81	-1
44	11474	6.91	-1
44	11628	7.01	-1
44	11778	7.11	-1
44	11928	7.21	-1
44	12078	7.31	-1
44	12228	7.41	-1
44	12378	7.51	-1
44	12529	7.61	-1
44	12892	7.71	-1
44	13042	7.81	-1
44	13192	7.91	-1
44	13346	8.01	-1
44	13496	8.11	-1
44	13646	8.21	-1
44	13796	8.31	-1
44	13946	8.41	-1
44	14096	8.51	-1
44	14246	8.61	-1
44	14609	8.71	-1
44	14760	8.81	-1
44	14910	8.91	-1
44	15064	9.01	-1
44	15214	9.11	-1
44	15364	9.21	-1
44	15514	9.31	-1
44	15664	9.41	-1
44	15814	9.51	-1
44	15964	9.61	-1
44	16115	9.71	-1
44	16522	9.81	-1
44	16672	9.91	-1
44	16826	10.01	-1
44	16976	10.11	-1
44	17126	10.21	-1
44	17276	10.31	-1
44	17426	10.41	-1
44	17576	10.51	-1
44	17726	10.61	-1
44	17876	10.71	-1
44	18239	10.81	-1
44	18390	10.91	-1
44	18544	11.01	-1
44	18694	11.11	-1
44	18844	11.21	-1
44	18994	11.31	-1
44	19144	11.41	-1
44	19294	11.51	-1
44	19444	11.61	-1
44	19594	11.71	-1
44	19745	11.81	-1
44	20108	11.91	-1
44	20262	12.01	-1
44	20412	12.11	-1
44	20562	12.21	-1
44	20712	12.31	-1
44	20862	12.41	-1
44	21012	12.51	-1
44	21162	12.61	-1
44	21312	12.71	-1
44	21462	12.81	-1
44	21845	12.91	-1
44	22000	13.01	-1
44	22150	13.11	-1
44	22300	13.21	-1
44	22450	13.31	-1
44	22600	13.41	-1
44	22750	13.51	-1
44	22900	13.61	-1
44	23050	13.71	-1
44	23200	13.81	-1
44	23351	13.91	-1
44	23738	14.01	-1
44	23888	14.11	-1
44	24038	14.21	-1
44	24188	14.31	-1
44	24338	14.41	-1
44	24488	14.51	-1
44	24638	14.61	-1
44	24788	14.71	-1
44	24938	14.81	-1
44	25088	14.91	-1
44	25499	15.01	-1
44	25650	15.11	-1
44	25800	15.21	-1
44	25950	15.31	-1
44	26100	15.41	-1
44	26250	15.51	-1
44	26400	15.61	-1
44	26550	15.71	-1
44	26700	15.81	-1
44	26850	15.91	-1
44	27004	16.01	-1
44	27154	16.11	-1
44	27304	16.21	-1
44	27454	16.31	-1
44	27604	16.41	-1
44	27754	16.51	-1
44	27904	16.61	-1
44	28054	16.71	-1
44	28204	16.81	-1
44	28354	16.91	-1
44	28508	17.01	-1
44	28658	17.11	-1
44	28808	17.21	-1
44	28958	17.31	-1
44	29108	17.41	-1
44	29258	17.51	-1
44	29408	17.61	-1
44	29558	17.71	-1
44	29708	17.81	-1
44	29858	17.91	-1
44	30012	18.01	-1
44	30162	18.11	-1
44	30312	18.21	-1
44	30462	18.31	-1
44	30612	18.41	-1
44	30762	18.51	-1
44	30912	18.61	-1
44	31062	18.71	-1
44	31212	18.81	-1
44	31362	18.91	-1
44	31516	19.01	-1
44	31666	19.11	-1
44	31816	19.21	-1
44	31966	19.31	-1
44	32116	19.41	-1
44	32266	19.51	-1
44	32416	19.61	-1
44	32566	19.71	-1
44	32716	19.81	-1
44	32866	19.91	-1
44	33020	20.01	-1
44	33170	20.11	-1
44	33320	20.21	-1
44	33470	20.31	-1
44	33620	20.41	-1
44	33770	20.51	-1
44	33920	20.61	-1
44	34070	20.71	-1
44	34220	20.81	-1
44	34370	20.91	-1
44	34524	21.01	-1
44	34674	21.11	-1
44	34824	21.21	-1
44	34974	21.31	-1
44	35124	21.41	-1
44	35274	21.51	-1
44	35424	21.61	-1
44	35574	21.71	-1
44	35724	21.81	-1
44	35874	21.91	-1
44	36028	22.01	-1
44	36178	22.11	-1
44	36328	22.21	-1
44	36478	22.31	-1
44	36628	22.41	-1
44	36778	22.51	-1
44	36928	22.61	-1
44	37078	22.71	-1
44	37228	22.81	-1
44	37378	22.91	-1
44	37532	23.01	-1
44	37682	23.11	-1
44	37832	23.21	-1
44	37982	23.31	-1
44	38132	23.41	-1
44	38282	23.51	-1
44	38432	23.61	-1
44	38582	23.71	-1
44	38732	23.81	-1
44	38882	23.91	-1
44	39036	24.01	-1
44	39186	24.11	-1
44	39336	24.21	-1
44	39486	24.31	-1
44	39636	24.41	-1
44	39786	24.51	-1
44	39936	24.61	-1
44	40086	24.71	-1
44	40236	24.81	-1
44	40386	24.91	-1
44	40540	25.01	-1
44	40690	25.11	-1
44	40840	25.21	-1
44	40990	25.31	-1
44	41140	25.41	-1
44	41290	25.51	-1
44	41440	25.61	-1
44	41590	25.71	-1
44	41740	25.81	-1
44	41890	25.91	-1
44	42044	26.01	-1
44	42194	26.11	-1
44	42344	26.21	-1
44	42494	26.31	-1
44	42644	26.41	-1
44	42794	26.51	-1
44	42944	26.61	-1
44	43095	26.71	-1
44	43245	26.81	-1
44	43395	26.91	-1
44	43549	27.01	-1
44	43699	27.11	-1
44	43849	27.21	-1
44	43999	27.31	-1
44	44149	27.41	-1
44	44299	27.51	-1
44	44449	27.61	-1
44	44599	27.71	-1
44	44749	27.81	-1
44	44899	27.91	-1
44	45053	28.01	-1
44	45203	28.11	-1
44	45353	28.21	-1
44	45503	28.31	-1
44	45653	28.41	-1
44	45803	28.51	-1
44	45953	28.61	-1
44	46103	28.71	-1
44	46253	28.81	-1
44	46403	28.91	-1
44	46557	29.01	-1
44	46707	29.11	-1
44	46857	29.21	-1
44	47007	29.31	-1
44	47157	29.41	-1
44	47307	29.51	-1
44	47457	29.61	-1
44	47607	29.71	-1
44	47757	29.81	-1
44	47907	29.91	-1
44	48061	30.01	-1
44	48211	30.11	-1
44	48361	30.21	-1
44	48511	30.31	-1
44	48661	30.41	-1
44	48811	30.51	-1
44	48961	30.61	-1
44	49111	30.71	-1
44	49261	30.81	-1
44	49411	30.91	-1
44	49565	31.01	-1
44	49715	31.11	-1
44	49865	31.21	-1
44	50015	31.31	-1
44	50165	31.41	-1
44	50315	31.51	-1
44	50465	31.61	-1
44	50615	31.71	-1
44	50765	31.81	-1
44	50915	31.91	-1
44	51069	32.01	-1
44	51219	32.11	-1
44	51369	32.21	-1
44	51519	32.31	-1
44	51669	32.41	-1
44	51819	32.51	-1
44	51969	32.61	-1
46	26	0.21	3
46	176	0.31	3
46	326	0.41	3
46	476	0.51	3
46	626	0.61	3
46	776	0.71	3
46	926	0.81	3
46	1076	0.91	3
46	1230	1.01	3
46	1381	1.11	3
46	1532	1.21	3
46	1683	1.31	3
46	2046	1.41	3
46	2196	1.51	3
46	2346	1.61	3
46	2496	1.71	3
46	2646	1.81	3
46	2796	1.91	3
46	2950	2.01	3
46	3100	2.11	3
46	3250	2.21	3
46	3400	2.31	3
46	3763	2.41	3
46	3914	2.51	3
46	4064	2.61	3
46	4214	2.71	3
46	4364	2.81	3
46	4514	2.91	3
46	4668	3.01	3
46	4818	3.11	3
46	4968	3.21	3
46	5118	3.31	3
46	5269	3.41	3
46	5676	3.51	3
46	5826	3.61	3
46	5976	3.71	3
46	6126	3.81	3
46	6276	3.91	3
46	6430	4.01	3
46	6580	4.11	3
46	6730	4.21	3
46	6880	4.31	3
46	7030	4.41	3
46	7393	4.51	3
46	7544	4.61	3
46	7694	4.71	3
46	7844	4.81	3
46	7994	4.91	3
46	8148	5.01	3
46	8298	5.11	3
46	8448	5.21	3
46	8598	5.31	3
46	8748	5.41	3
46	8899	5.51	3
46	9262	5.61	3
46	9412	5.71	3
46	9562	5.81	3
46	9712	5.91	3
46	9866	6.01	3
46	10016	6.11	3
46	10166	6.21	3
46	10316	6.31	3
46	10466	6.41	3
46	10616	6.51	3
46	11023	6.61	3
46	11174	6.71	3
46	11324	6.81	3
46	11474	6.91	3
46	11628	7.01	3
46	11778	7.11	3
46	11928	7.21	3
46	12078	7.31	3
46	12228	7.41	3
46	12378	7.51	3
46	12529	7.61	3
46	12892	7.71	3
46	13042	7.81	3
46	13192	7.91	3
46	13346	8.01	3
46	13496	8.11	3
46	13646	8.21	3
46	13796	8.31	3
46	13946	8.41	3
46	14096	8.51	3
46	14246	8.61	3
46	14609	8.71	3
46	14760	8.81	3
46	14910	8.91	3
46	15064	9.01	3
46	15214	9.11	3
46	15364	9.21	3
46	15514	9.31	3
46	15664	9.41	3
46	15814	9.51	3
46	15964	9.61	3
46	16115	9.71	3
46	16522	9.81	3
46	16672	9.91	3
46	16826	10.01	3
46	16976	10.11	3
46	17126	10.21	3
46	17276	10.31	3
46	17426	10.41	3
46	17576	10.51	3
46	17726	10.61	3
46	17876	10.71	3
46	18239	10.81	3
46	18390	10.91	3
46	18544	11.01	3
46	18694	11.11	3
46	18844	11.21	3
46	18994	11.31	3
46	19144	11.41	3
46	19294	11.51	3
46	19444	11.61	3
46	19594	11.71	3
46	19745	11.81	3
46	20108	11.91	3
46	20262	12.01	3
46	20412	12.11	3
46	20562	12.21	3
46	20712	12.31	3
46	20862	12.41	3
46	21012	12.51	3
46	21162	12.61	3
46	21312	12.71	3
46	21462	12.81	3
46	21845	12.91	3
46	22000	13.01	3
46	22150	13.11	3
46	22300	13.21	3
46	22450	13.31	3
46	22600	13.41	3
46	22750	13.51	3
46	22900	13.61	3
46	23050	13.71	3
46	23200	13.81	3
46	23351	13.91	3
46	23738	14.01	3
46	23888	14.11	3
46	24038	14.21	3
46	24188	14.31	3
46	24338	14.41	3
46	24488	14.51	3
46	24638	14.61	3
46	24788	14.71	3
46	24938	14.81	3
46	25088	14.91	3
46	25499	15.01	3
46	25650	15.11	3
46	25800	15.21	3
46	25950	15.31	3
46	26100	15.41	3
46	26250	15.51	3
46	26400	15.61	3
46	26550	15.71	3
46	26700	15.81	3
46	26850	15.91	3
46	27004	16.01	3
46	27154	16.11	3
46	27304	16.21	3
46	27454	16.31	3
46	27604	16.41	3
46	27754	16.51	3
46	27904	16.61	3
46	28054	16.71	3
46	28204	16.81	3
46	28354	16.91	3
46	28508	17.01	3
46	28658	17.11	3
46	28808	17.21	3
46	28958	17.31	3
46	29108	17.41	3
46	29258	17.51	3
46	29408	17.61	3
46	29558	17.71	3
46	29708	17.81	3
46	29858	17.91	3
46	30012	18.01	3
46	30162	18.11	3
46	30312	18.21	3
46	30462	18.31	3
46	30612	18.41	3
46	30762	18.51	3
46	30912	18.61	3
46	31062	18.71	3
46	31212	18.81	3
46	31362	18.91	3
46	31516	19.01	3
46	31666	19.11	3
46	31816	19.21	3
46	31966	19.31	3
46	32116	19.41	3
46	32266	19.51	3
46	32416	19.61	3
46	32566	19.71	3
46	32716	19.81	3
46	32866	19.91	3
46	33020	20.01	3
46	33170	20.11	3
46	33320	20.21	3
46	33470	20.31	3
46	33620	20.41	3
46	33770	20.51	3
46	33920	20.61	3
46	34070	20.71	3
46	34220	20.81	3
46	34370	20.91	3
46	34524	21.01	3
46	34674	21.11	3
46	34824	21.21	3
46	34974	21.31	3
46	35124	21.41	3
46	35274	21.51	3
46	35424	21.61	3
46	35574	21.71	3
46	35724	21.81	3
46	35874	21.91	3
46	36028	22.01	3
46	36178	22.11	3
46	36328	22.21	3
46	36478	22.31	3
46	36628	22.41	3
46	36778	22.51	3
46	36928	22.61	3
46	37078	22.71	3
46	37228	22.81	3
46	37378	22.91	3
46	37532	23.01	3
46	37682	23.11	3
46	37832	23.21	3
46	37982	23.31	3
46	38132	23.41	3
46	38282	23.51	3
46	38432	23.61	3
46	38582	23.71	3
46	38732	23.81	3
46	38882	23.91	3
46	39036	24.01	3
46	39186	24.11	3
46	39336	24.21	3
46	39486	24.31	3
46	39636	24.41	3
46	39786	24.51	3
46	39936	24.61	3
46	40086	24.71	3
46	40236	24.81	3
46	40386	24.91	3
46	40540	25.01	3
46	40690	25.11	3
46	40840	25.21	3
46	40990	25.31	3
46	41140	25.41	3
46	41290	25.51	3
46	41440	25.61	3
46	41590	25.71	3
46	41740	25.81	3
46	41890	25.91	3
46	42044	26.01	3
46	42194	26.11	3
46	42344	26.21	3
46	42494	26.31	3
46	42644	26.41	3
46	42794	26.51	3
46	42944	26.61	3
46	43095	26.71	3
46	43245	26.81	3
46	43395	26.91	3
46	43549	27.01	3
46	43699	27.11	3
46	43849	27.21	3
46	43999	27.31	3
46	44149	27.41	3
46	44299	27.51	3
46	44449	27.61	3
46	44599	27.71	3
46	44749	27.81	3
46	44899	27.91	3
46	45053	28.01	3
46	45203	28.11	3
46	45353	28.21	3
46	45503	28.31	3
46	45653	28.41	3
46	45803	28.51	3
46	45953	28.61	3
46	46103	28.71	3
46	46253	28.81	3
46	46403	28.91	3
46	46557	29.01	3
46	46707	29.11	3
46	46857	29.21	3
46	47007	29.31	3
46	47157	29.41	3
46	47307	29.51	3
46	47457	29.61	3
46	47607	29.71	3
46	47757	29.81	3
46	47907	29.91	3
46	48061	30.01	3
46	48211	30.11	3
46	48361	30.21	3
46	48511	30.31	3
46	48661	30.41	3
46	48811	30.51	3
46	48961	30.61	3
46	49111	30.71	3
46	49261	30.81	3
46	49411	30.91	3
46	49565	31.01	3
46	49715	31.11	3
46	49865	31.21	3
46	50015	31.31	3
46	50165	31.41	3
46	50315	31.51	3
46	50465	31.61	3
46	50615	31.71	3
46	50765	31.81	3
46	50915	31.91	3
46	51069	32.01	3
46	51219	32.11	3
46	51369	32.21	3
46	51519	32.31	3
46	51669	32.41	3
46	51819	32.51	3
46	51969	32.61	3
67	1191	1	0
67	2911	2	0
67	4629	3	0
67	6391	4	0
67	8109	5	0
67	9827	6	0
67	11589	7	0
67	13307	8	0
67	15025	9	0
67	16787	10	0
67	18505	11	0
67	20223	12	0
67	21961	13	0
67	23699	14	0
67	25460	15	0
67	26965	16	0
67	28469	17	0
67	29973	18	0
67	31477	19	0
67	32981	20	0
67	34485	21	0
67	35989	22	0
67	37493	23	0
67	38997	24	0
67	40501	25	0
67	42005	26	0
67	43510	27	0
67	45014	28	0
67	46518	29	0
67	48022	30	0
67	49526	31	0
67	51030	32	0
66	1191	1	0.009679
66	2911	2	0.013005660074
66	4629	3	0.013005407162
66	6391	4	0.013053171404
66	8109	5	0.013004940862
66	9827	6	0.013004712148
66	11589	7	0.013147485222
66	13307	8	0.013004260366
66	15025	9	0.013004037568
66	16787	10	0.013146816652
66	18505	11	0.013003597444
66	20223	12	0.013003379838
66	21961	13	0.013003164146
66	23699	14	0.013003056702
66	25460	15	0.013051267801
66	26965	16	0.01249
66	28469	17	0.01249
66	29973	18	0.01249
66	31477	19	0.01249
66	32981	20	0.01249
66	34485	21	0.01249
66	35989	22	0.01249
66	37493	23	0.01249
66	38997	24	0.01249
66	40501	25	0.01249
66	42005	26	0.01249
66	43510	27	0.01249
66	45014	28	0.01249
66	46518	29	0.01249
66	48022	30	0.01249
66	49526	31	0.01249
66	51030	32	0.01249
65	1191	1	3
65	2911	2	3
65	4629	3	3
65	6391	4	3
65	8109	5	3
65	9827	6	3
65	11589	7	3
65	13307	8	3
65	15025	9	3
65	16787	10	3
65	18505	11	3
65	20223	12	3
65	21961	13	3
65	23699	14	3
65	25460	15	3
65	26965	16	3
65	28469	17	3
65	29973	18	3
65	31477	19	3
65	32981	20	3
65	34485	21	3
65	35989	22	3
65	37493	23	3
65	38997	24	3
65	40501	25	3
65	42005	26	3
65	43510	27	3
65	45014	28	3
65	46518	29	3
65	48022	30	3
65	49526	31	3
65	51030	32	3
19	15	0.13	2.1763587654741
19	16	0.14	2.1762060308025
19	17	0.15	2.1760563339034
19	18	0.16	2.1759096445761
19	19	0.17	2.1757659326225
19	20	0.18	2.1756251678512
19	21	0.19	2.1754873200851
19	22	0.2	2.1753523591664
19	27	0.21	2.1752202549617
19	62	0.22	2.1750909773682
19	97	0.23	2.1749644963185
19	98	0.24	2.1748407817852
19	99	0.25	2.1747198037881
19	134	0.26	2.1746015323969
19	135	0.27	2.1744859377376
19	136	0.28	2.1743729899968
19	137	0.29	2.1742626594255
19	138	0.3	2.174154916345
19	177	0.31	2.1740497311507
19	212	0.32	2.1739470743167
19	247	0.33	2.1738469163994
19	248	0.34	2.1737492280434
19	249	0.35	2.173653979983
19	284	0.36	2.1735611430482
19	285	0.37	2.1734706881683
19	286	0.38	2.1733825863743
19	287	0.39	2.1732968088043
19	288	0.4	2.1732133267055
19	327	0.41	2.17313211144
19	362	0.42	2.1730531344853
19	397	0.43	2.1729763674397
19	398	0.44	2.1729017820245
19	399	0.45	2.1728293500875
19	434	0.46	2.1727590436068
19	435	0.47	2.1726908346916
19	436	0.48	2.172624695588
19	437	0.49	2.1725605986794
19	438	0.5	2.17249851649
19	477	0.51	2.1724384216885
19	512	0.52	2.1723802870887
19	547	0.53	2.1723240856526
19	548	0.54	2.1722697904944
19	549	0.55	2.1722173748809
19	584	0.56	2.1721668122343
19	585	0.57	2.1721180761348
19	586	0.58	2.172071140322
19	587	0.59	2.1720259786971
19	588	0.6	2.1719825653262
19	627	0.61	2.1719408744402
19	662	0.62	2.1719008804372
19	697	0.63	2.1718625578852
19	698	0.64	2.1718258815223
19	699	0.65	2.1717908262593
19	734	0.66	2.1717573671816
19	735	0.67	2.1717254795495
19	736	0.68	2.1716951388001
19	737	0.69	2.1716663205492
19	738	0.7	2.1716390005924
19	777	0.71	2.1716131549045
19	812	0.72	2.1715887596444
19	847	0.73	2.1715657911523
19	848	0.74	2.1715442259536
19	849	0.75	2.1715240407587
19	884	0.76	2.1715052124633
19	885	0.77	2.1714877181509
19	886	0.78	2.171471535092
19	887	0.79	2.1714566407462
19	888	0.8	2.1714430127618
19	927	0.81	2.1714306289784
19	962	0.82	2.1714194674248
19	997	0.83	2.1714095063211
19	998	0.84	2.1714007240793
19	999	0.85	2.1713930993041
19	1034	0.86	2.1713866107919
19	1035	0.87	2.1713812375322
19	1036	0.88	2.1713769587082
19	1037	0.89	2.171373753697
19	1038	0.9	2.1713716020681
19	1077	0.91	2.1713704835865
19	1112	0.92	2.171370378211
19	1147	0.93	2.1713712660947
19	1148	0.94	2.1713731275852
19	1149	0.95	2.1713759432245
19	1184	0.96	2.1713796937487
19	1185	0.97	2.1713843600885
19	1186	0.98	2.1713899233693
19	1187	0.99	2.1713963649106
19	1192	1	2.1714036662261
19	1231	1.01	2.1714118090229
19	1266	1.02	2.1714207752021
19	1301	1.03	2.1714305468589
19	1302	1.04	2.171441106281
19	1303	1.05	2.1714524359493
19	1338	1.06	2.1714645185367
19	1339	1.07	2.1714773369085
19	1340	1.08	2.1714908741224
19	1341	1.09	2.1715051134258
19	1342	1.1	2.1715200382587
19	1382	1.11	2.1715356322509
19	1417	1.12	2.1715518792218
19	1452	1.13	2.1715687631793
19	1453	1.14	2.1715862683214
19	1454	1.15	2.1716043790338
19	1489	1.16	2.171623079889
19	1490	1.17	2.1716423556473
19	1491	1.18	2.171662191254
19	1492	1.19	2.171682571841
19	1493	1.2	2.171703482724
19	1533	1.21	2.1717249094032
19	1568	1.22	2.1717468375618
19	1603	1.23	2.1717692530656
19	1604	1.24	2.1717921419619
19	1605	1.25	2.1718154904791
19	1640	1.26	2.1718392850249
19	1641	1.27	2.1718635121865
19	1642	1.28	2.1718881587292
19	1643	1.29	2.1719132115965
19	1644	1.3	2.171938657907
19	1684	1.31	2.1719644849552
19	1931	1.32	2.17199068021
19	1966	1.33	2.1720172313142
19	1967	1.34	2.172044126083
19	1968	1.35	2.1720713525032
19	2004	1.36	2.1720988987321
19	2005	1.37	2.1721267530964
19	2006	1.38	2.1721549040918
19	2007	1.39	2.1721833403811
19	2008	1.4	2.1722120507936
19	2047	1.41	2.1722410243235
19	2082	1.42	2.1722702501298
19	2117	1.43	2.1722997175345
19	2118	1.44	2.1723294160211
19	2119	1.45	2.1723593352347
19	2154	1.46	2.1723894649803
19	2155	1.47	2.1724197952208
19	2156	1.48	2.1724503160769
19	2157	1.49	2.1724810178259
19	2158	1.5	2.1725118909007
19	2197	1.51	2.1725429258873
19	2232	1.52	2.172574113525
19	2267	1.53	2.1726054447051
19	2268	1.54	2.1726369104691
19	2269	1.55	2.1726685020078
19	2304	1.56	2.1727002106598
19	2305	1.57	2.1727320279108
19	2306	1.58	2.1727639453924
19	2307	1.59	2.1727959548804
19	2308	1.6	2.1728280482944
19	2347	1.61	2.172860217695
19	2382	1.62	2.1728924552844
19	2417	1.63	2.1729247534041
19	2418	1.64	2.1729571045343
19	2419	1.65	2.1729895012915
19	2454	1.66	2.1730219364285
19	2455	1.67	2.1730544028328
19	2456	1.68	2.1730868935245
19	2457	1.69	2.1731194016569
19	2458	1.7	2.1731519205143
19	2497	1.71	2.1731844435089
19	2532	1.72	2.1732169641831
19	2567	1.73	2.1732494762051
19	2568	1.74	2.1732819733699
19	2569	1.75	2.1733144495968
19	2604	1.76	2.1733468989278
19	2605	1.77	2.1733793155279
19	2606	1.78	2.1734116936827
19	2607	1.79	2.1734440277972
19	2608	1.8	2.1734763123949
19	2647	1.81	2.173508542117
19	2682	1.82	2.1735407117191
19	2717	1.83	2.1735728160728
19	2718	1.84	2.1736048501622
19	2719	1.85	2.1736368090841
19	2754	1.86	2.1736686880454
19	2755	1.87	2.1737004823636
19	2756	1.88	2.1737321874646
19	2757	1.89	2.1737637988809
19	2758	1.9	2.173795312251
19	2797	1.91	2.1738267233185
19	2832	1.92	2.1738580279308
19	2867	1.93	2.1738892220363
19	2868	1.94	2.1739203016865
19	2869	1.95	2.173951263031
19	2904	1.96	2.1739821023191
19	2905	1.97	2.174012815897
19	2906	1.98	2.174043400208
19	2907	1.99	2.1740738517898
19	2912	2	2.1741041672739
19	2951	2.01	2.1741343433852
19	2986	2.02	2.1741643769395
19	3021	2.03	2.1741942648435
19	3022	2.04	2.1742240040925
19	3023	2.05	2.1742535917705
19	3058	2.06	2.1742830250484
19	3059	2.07	2.1743123011825
19	3060	2.08	2.174341417514
19	3061	2.09	2.174370371467
19	3062	2.1	2.1743991605487
19	3101	2.11	2.1744277823472
19	3136	2.12	2.1744562345311
19	3171	2.13	2.1744845148467
19	3172	2.14	2.1745126211195
19	3173	2.15	2.1745405512509
19	3208	2.16	2.1745683032188
19	3209	2.17	2.1745958750751
19	3210	2.18	2.1746232649452
19	3211	2.19	2.1746504710276
19	3212	2.2	2.1746774915912
19	3251	2.21	2.1747043249761
19	3286	2.22	2.1747309695907
19	3321	2.23	2.174757423913
19	3322	2.24	2.1747836864865
19	3323	2.25	2.1748097559224
19	3358	2.26	2.1748356308961
19	3359	2.27	2.174861310147
19	3360	2.28	2.174886792478
19	3361	2.29	2.1749120767545
19	3362	2.3	2.1749371619018
19	3401	2.31	2.1749620469065
19	3436	2.32	2.1749867308135
19	3471	2.33	2.1750112127258
19	3472	2.34	2.1750354918044
19	3473	2.35	2.1750595672656
19	3509	2.36	2.1750834383818
19	3722	2.37	2.1751071044795
19	3723	2.38	2.1751305649385
19	3724	2.39	2.1751538191909
19	3725	2.4	2.1751768667204
19	3765	2.41	2.1751997070619
19	3800	2.42	2.175222339799
19	3835	2.43	2.1752447645654
19	3836	2.44	2.1752669810423
19	3837	2.45	2.1752889889574
19	3872	2.46	2.1753107880849
19	3873	2.47	2.1753323782445
19	3874	2.48	2.1753537593012
19	3875	2.49	2.1753749311624
19	3876	2.5	2.1753958937787
19	3915	2.51	2.1754166471432
19	3950	2.52	2.1754371912894
19	3985	2.53	2.1754575262918
19	3986	2.54	2.1754776522645
19	3987	2.55	2.1754975693598
19	4022	2.56	2.1755172777677
19	4023	2.57	2.1755367777166
19	4024	2.58	2.17555606947
19	4025	2.59	2.1755751533284
19	4026	2.6	2.1755940296255
19	4065	2.61	2.1756126987307
19	4100	2.62	2.175631161046
19	4135	2.63	2.1756494170058
19	4136	2.64	2.1756674670773
19	4137	2.65	2.1756853117584
19	4172	2.66	2.1757029515777
19	4173	2.67	2.1757203870935
19	4174	2.68	2.175737618893
19	4175	2.69	2.1757546475919
19	4176	2.7	2.1757714738339
19	4215	2.71	2.1757880982895
19	4250	2.72	2.1758045216559
19	4285	2.73	2.1758207446556
19	4286	2.74	2.1758367680366
19	4287	2.75	2.1758525925718
19	4322	2.76	2.1758682190567
19	4323	2.77	2.1758836483111
19	4324	2.78	2.1758988811775
19	4325	2.79	2.1759139185194
19	4326	2.8	2.1759287612218
19	4365	2.81	2.1759434101919
19	4400	2.82	2.1759578663552
19	4435	2.83	2.1759721306587
19	4436	2.84	2.175986204067
19	4437	2.85	2.176000087564
19	4472	2.86	2.1760137821506
19	4473	2.87	2.1760272888468
19	4474	2.88	2.1760406086883
19	4475	2.89	2.1760537427269
19	4476	2.9	2.1760666920304
19	4515	2.91	2.1760794576829
19	4550	2.92	2.1760920407815
19	4585	2.93	2.1761044424391
19	4586	2.94	2.1761166637812
19	4587	2.95	2.176128705948
19	4622	2.96	2.1761405700906
19	4623	2.97	2.1761522573742
19	4624	2.98	2.1761637689749
19	4625	2.99	2.1761751060802
19	4630	3	2.1761862698885
19	4669	3.01	2.176197261609
19	4704	3.02	2.1762080824612
19	4739	3.03	2.1762187336733
19	4740	3.04	2.1762292164839
19	4741	3.05	2.1762395321391
19	4776	3.06	2.1762496818933
19	4777	3.07	2.1762596670103
19	4778	3.08	2.1762694887598
19	4779	3.09	2.1762791484195
19	4780	3.1	2.1762886472741
19	4819	3.11	2.1762979866134
19	4854	3.12	2.1763071677348
19	4889	3.13	2.1763161919399
19	4890	3.14	2.176325060536
19	4891	3.15	2.1763337748355
19	4926	3.16	2.176342336155
19	4927	3.17	2.1763507458155
19	4928	3.18	2.1763590051423
19	4929	3.19	2.1763671154631
19	4930	3.2	2.1763750781094
19	4969	3.21	2.1763828944163
19	5004	3.22	2.1763905657199
19	5039	3.23	2.1763980933595
19	5040	3.24	2.1764054786759
19	5041	3.25	2.1764127230113
19	5076	3.26	2.17641982771
19	5077	3.27	2.1764267941168
19	5078	3.28	2.1764336235778
19	5079	3.29	2.1764403174391
19	5080	3.3	2.1764468770463
19	5119	3.31	2.1764533037465
19	5154	3.32	2.1764595988848
19	5189	3.33	2.1764657638071
19	5190	3.34	2.1764717998575
19	5191	3.35	2.1764777083801
19	5226	3.36	2.1764834907164
19	5227	3.37	2.1764891482064
19	5228	3.38	2.1764946821897
19	5229	3.39	2.1765000940024
19	5230	3.4	2.1765053849787
19	5270	3.41	2.1765105564508
19	5561	3.42	2.1765156097477
19	5596	3.43	2.1765205461962
19	5597	3.44	2.1765253671188
19	5598	3.45	2.1765300738359
19	5634	3.46	2.1765346676643
19	5635	3.47	2.1765391499161
19	5636	3.48	2.1765435219005
19	5637	3.49	2.1765477849224
19	5638	3.5	2.1765519402826
19	5677	3.51	2.1765559892767
19	5712	3.52	2.1765599331969
19	5747	3.53	2.1765637733304
19	5748	3.54	2.1765675109587
19	5749	3.55	2.1765711473591
19	5784	3.56	2.1765746838035
19	5785	3.57	2.1765781215583
19	5786	3.58	2.1765814618843
19	5787	3.59	2.1765847060376
19	5788	3.6	2.1765878552667
19	5827	3.61	2.1765909108161
19	5862	3.62	2.1765938739241
19	5897	3.63	2.1765967458213
19	5898	3.64	2.1765995277332
19	5899	3.65	2.1766022208793
19	5934	3.66	2.1766048264715
19	5935	3.67	2.1766073457159
19	5936	3.68	2.1766097798111
19	5937	3.69	2.1766121299503
19	5938	3.7	2.1766143973185
19	5977	3.71	2.1766165830939
19	6012	3.72	2.176618688448
19	6047	3.73	2.1766207145445
19	6048	3.74	2.1766226625406
19	6049	3.75	2.1766245335852
19	6084	3.76	2.1766263288209
19	6085	3.77	2.1766280493818
19	6086	3.78	2.176629696395
19	6087	3.79	2.1766312709793
19	6088	3.8	2.1766327742462
19	6127	3.81	2.1766342072996
19	6162	3.82	2.1766355712347
19	6197	3.83	2.1766368671397
19	6198	3.84	2.1766380960948
19	6199	3.85	2.1766392591711
19	6234	3.86	2.1766403574325
19	6235	3.87	2.1766413919346
19	6236	3.88	2.1766423637247
19	6237	3.89	2.1766432738415
19	6238	3.9	2.1766441233166
19	6277	3.91	2.1766449131724
19	6312	3.92	2.176645644422
19	6347	3.93	2.1766463180722
19	6348	3.94	2.1766469351198
19	6349	3.95	2.1766474965543
19	6384	3.96	2.1766480033551
19	6385	3.97	2.1766484564951
19	6386	3.98	2.1766488569366
19	6387	3.99	2.1766492056351
19	6392	4	2.1766495035362
19	6431	4.01	2.1766497515783
19	6466	4.02	2.1766499506902
19	6501	4.03	2.1766501017917
19	6502	4.04	2.1766502057952
19	6503	4.05	2.1766502636034
19	6538	4.06	2.1766502761103
19	6539	4.07	2.1766502442022
19	6540	4.08	2.1766501687565
19	6541	4.09	2.1766500506413
19	6542	4.1	2.1766498907167
19	6581	4.11	2.1766496898337
19	6616	4.12	2.1766494488348
19	6651	4.13	2.1766491685536
19	6652	4.14	2.1766488498155
19	6653	4.15	2.1766484934371
19	6688	4.16	2.1766481002266
19	6689	4.17	2.1766476709827
19	6690	4.18	2.1766472064965
19	6691	4.19	2.1766467075495
19	6692	4.2	2.1766461749156
19	6731	4.21	2.1766456093599
19	6766	4.22	2.176645011639
19	6801	4.23	2.1766443825009
19	6802	4.24	2.1766437226842
19	6803	4.25	2.1766430329204
19	6838	4.26	2.1766423139318
19	6839	4.27	2.1766415664323
19	6840	4.28	2.1766407911278
19	6841	4.29	2.176639988715
19	6842	4.3	2.1766391598832
19	6881	4.31	2.1766383053127
19	6916	4.32	2.1766374256759
19	6951	4.33	2.1766365216366
19	6952	4.34	2.1766355938507
19	6953	4.35	2.1766346429654
19	6988	4.36	2.1766336696206
19	6989	4.37	2.1766326744476
19	6990	4.38	2.1766316580689
19	6991	4.39	2.1766306210999
19	6992	4.4	2.1766295641479
19	7031	4.41	2.1766284878115
19	7066	4.42	2.176627392682
19	7101	4.43	2.1766262793428
19	7102	4.44	2.1766251483687
19	7103	4.45	2.176624000328
19	7139	4.46	2.1766228357803
19	7352	4.47	2.1766216552775
19	7353	4.48	2.1766204593635
19	7354	4.49	2.176619248575
19	7355	4.5	2.1766180234413
19	7395	4.51	2.1766167844842
19	7430	4.52	2.1766155322176
19	7465	4.53	2.176614267148
19	7466	4.54	2.176612989774
19	7467	4.55	2.1766117005879
19	7502	4.56	2.1766104000735
19	7503	4.57	2.1766090887085
19	7504	4.58	2.1766077669626
19	7505	4.59	2.1766064352986
19	7506	4.6	2.1766050941715
19	7545	4.61	2.1766037440307
19	7580	4.62	2.1766023853172
19	7615	4.63	2.1766010184654
19	7616	4.64	2.1765996439028
19	7617	4.65	2.1765982620505
19	7652	4.66	2.1765968733225
19	7653	4.67	2.1765954781257
19	7654	4.68	2.1765940768601
19	7655	4.69	2.1765926699196
19	7656	4.7	2.1765912576919
19	7695	4.71	2.1765898405571
19	7730	4.72	2.1765884188892
19	7765	4.73	2.1765869930561
19	7766	4.74	2.1765855634189
19	7767	4.75	2.1765841303327
19	7802	4.76	2.1765826941465
19	7803	4.77	2.1765812552016
19	7804	4.78	2.176579813835
19	7805	4.79	2.1765783703771
19	7806	4.8	2.1765769251513
19	7845	4.81	2.1765754784757
19	7880	4.82	2.1765740306628
19	7915	4.83	2.1765725820186
19	7916	4.84	2.1765711328432
19	7917	4.85	2.1765696834312
19	7952	4.86	2.1765682340716
19	7953	4.87	2.1765667850472
19	7954	4.88	2.1765653366365
19	7955	4.89	2.1765638891106
19	7956	4.9	2.1765624427361
19	7995	4.91	2.176560997774
19	8030	4.92	2.1765595544799
19	8065	4.93	2.1765581131045
19	8066	4.94	2.1765566738925
19	8067	4.95	2.1765552370842
19	8102	4.96	2.1765538029134
19	8103	4.97	2.17655237161
19	8104	4.98	2.1765509433987
19	8105	4.99	2.1765495184985
19	8110	5	2.176548097124
19	8149	5.01	2.1765466794842
19	8184	5.02	2.1765452657847
19	8219	5.03	2.176543856225
19	8220	5.04	2.1765424510002
19	8221	5.05	2.1765410503015
19	8256	5.06	2.1765396543142
19	8257	5.07	2.1765382632199
19	8258	5.08	2.1765368771948
19	8259	5.09	2.1765354964122
19	8260	5.1	2.1765341210391
19	8299	5.11	2.1765327512398
19	8334	5.12	2.1765313871737
19	8369	5.13	2.1765300289957
19	8370	5.14	2.1765286768564
19	8371	5.15	2.1765273309023
19	8406	5.16	2.1765259912768
19	8407	5.17	2.1765246581179
19	8408	5.18	2.1765233315607
19	8409	5.19	2.1765220117356
19	8410	5.2	2.1765206987689
19	8449	5.21	2.1765193927841
19	8484	5.22	2.1765180939004
19	8519	5.23	2.1765168022333
19	8520	5.24	2.1765155178939
19	8521	5.25	2.1765142409911
19	8556	5.26	2.1765129716294
19	8557	5.27	2.1765117099093
19	8558	5.28	2.1765104559288
19	8559	5.29	2.1765092097821
19	8560	5.3	2.1765079715594
19	8599	5.31	2.1765067413488
19	8634	5.32	2.176505519234
19	8669	5.33	2.1765043052963
19	8670	5.34	2.1765030996128
19	8671	5.35	2.1765019022581
19	8706	5.36	2.1765007133043
19	8707	5.37	2.1764995328194
19	8708	5.38	2.1764983608683
19	8709	5.39	2.176497197514
19	8710	5.4	2.1764960428161
19	8749	5.41	2.1764948968316
19	8784	5.42	2.1764937596139
19	8819	5.43	2.1764926312139
19	8820	5.44	2.1764915116805
19	8821	5.45	2.1764904010588
19	8856	5.46	2.1764892993924
19	8857	5.47	2.1764882067214
19	8858	5.48	2.1764871230833
19	8859	5.49	2.1764860485143
19	8860	5.5	2.1764849830468
19	8900	5.51	2.1764839267111
19	9147	5.52	2.1764828795351
19	9182	5.53	2.1764818415451
19	9183	5.54	2.1764808127645
19	9184	5.55	2.1764797932143
19	9220	5.56	2.1764787829133
19	9221	5.57	2.1764777818781
19	9222	5.58	2.1764767901235
19	9223	5.59	2.1764758076622
19	9224	5.6	2.1764748345043
19	9263	5.61	2.176473870658
19	9298	5.62	2.1764729161302
19	9333	5.63	2.1764719709252
19	9334	5.64	2.1764710350452
19	9335	5.65	2.1764701084912
19	9370	5.66	2.1764691912623
19	9371	5.67	2.1764682833549
19	9372	5.68	2.1764673847647
19	9373	5.69	2.1764664954848
19	9374	5.7	2.1764656155071
19	9413	5.71	2.1764647448221
19	9448	5.72	2.1764638834183
19	9483	5.73	2.1764630312823
19	9484	5.74	2.1764621883993
19	9485	5.75	2.1764613547539
19	9520	5.76	2.1764605303276
19	9521	5.77	2.1764597151015
19	9522	5.78	2.1764589090557
19	9523	5.79	2.1764581121676
19	9524	5.8	2.1764573244138
19	9563	5.81	2.1764565457698
19	9598	5.82	2.1764557762097
19	9633	5.83	2.1764550157069
19	9634	5.84	2.1764542642321
19	9635	5.85	2.1764535217555
19	9670	5.86	2.1764527882466
19	9671	5.87	2.1764520636735
19	9672	5.88	2.1764513480031
[...]
2	66942	55.23	931.55726268403
2	66943	55.24	931.69615168374
2	66944	55.25	931.83504068346
2	66963	55.26	931.97392968317
2	66964	55.27	932.11281868289
2	66965	55.28	932.2517076826
2	66966	55.29	932.39059668231
2	66967	55.3	932.52948568203
2	66970	55.31	932.66837468175
2	66971	55.32	932.80726368146
2	66990	55.33	932.94615268118
2	66991	55.34	933.0850416809
2	66992	55.35	933.22393068061
2	67011	55.36	933.36281968033
2	67012	55.37	933.50170868005
2	67013	55.38	933.64059767977
2	67014	55.39	933.77948667949
2	67015	55.4	933.91837567921
2	67018	55.41	934.05726467893
2	67019	55.42	934.19615367865
2	67038	55.43	934.33504267837
2	67039	55.44	934.47393167809
2	67040	55.45	934.61282067782
2	67059	55.46	934.75170967754
2	67060	55.47	934.89059867726
2	67061	55.48	935.02948767698
2	67062	55.49	935.16837667671
2	67063	55.5	935.30726567643
2	67066	55.51	935.44615467616
2	67067	55.52	935.58504367588
2	67086	55.53	935.72393267561
2	67087	55.54	935.86282167533
2	67088	55.55	936.00171067506
2	67107	55.56	936.14059967479
2	67108	55.57	936.27948867451
2	67109	55.58	936.41837767424
2	67110	55.59	936.55726667397
2	67111	55.6	936.6961556737
2	67114	55.61	936.83504467343
2	67115	55.62	936.97393367316
2	67134	55.63	937.11282267289
2	67135	55.64	937.25171167262
2	67136	55.65	937.39060067235
2	67155	55.66	937.52948967208
2	67156	55.67	937.66837867181
2	67157	55.68	937.80726767154
2	67158	55.69	937.94615667127
2	67159	55.7	938.08504567101
2	67162	55.71	938.22393467074
2	67163	55.72	938.36282367047
2	67182	55.73	938.50171267021
2	67183	55.74	938.64060166994
2	67184	55.75	938.77949066968
2	67203	55.76	938.91837966941
2	67204	55.77	939.05726866915
2	67205	55.78	939.19615766888
2	67206	55.79	939.33504666862
2	67207	55.8	939.47393566836
2	67210	55.81	939.61282466809
2	67211	55.82	939.75171366783
2	67230	55.83	939.89060266757
2	67231	55.84	940.02949166731
2	67232	55.85	940.16838066705
2	67251	55.86	940.30726966679
2	67252	55.87	940.44615866653
2	67253	55.88	940.58504766627
2	67254	55.89	940.72393666601
2	67255	55.9	940.86282566575
2	67258	55.91	941.00171466549
2	67259	55.92	941.14060366523
2	67278	55.93	941.27949266497
2	67279	55.94	941.41838166472
2	67280	55.95	941.55727066446
2	67299	55.96	941.6961596642
2	67300	55.97	941.83504866395
2	67301	55.98	941.97393766369
2	67302	55.99	942.11282666343
2	67305	56	942.25171566318
2	67308	56.01	942.39060466292
2	67309	56.02	942.52949366267
2	67328	56.03	942.66838266242
2	67329	56.04	942.80727166216
2	67330	56.05	942.94616066191
2	67349	56.06	943.08504966166
2	67350	56.07	943.2239386614
2	67351	56.08	943.36282766115
2	67352	56.09	943.5017166609
2	67353	56.1	943.64060566065
2	67356	56.11	943.7794946604
2	67357	56.12	943.91838366015
2	67376	56.13	944.0572726599
2	67377	56.14	944.19616165965
2	67378	56.15	944.3350506594
2	67397	56.16	944.47393965915
2	67398	56.17	944.6128286589
2	67399	56.18	944.75171765866
2	67400	56.19	944.89060665841
2	67401	56.2	945.02949565816
2	67404	56.21	945.16838465791
2	67405	56.22	945.30727365767
2	67424	56.23	945.44616265742
2	67425	56.24	945.58505165718
2	67426	56.25	945.72394065693
2	67445	56.26	945.86282965669
2	67446	56.27	946.00171865644
2	67447	56.28	946.1406076562
2	67448	56.29	946.27949665595
2	67449	56.3	946.41838565571
2	67452	56.31	946.55727465547
2	67453	56.32	946.69616365522
2	67472	56.33	946.83505265498
2	67473	56.34	946.97394165474
2	67474	56.35	947.1128306545
2	67493	56.36	947.25171965426
2	67494	56.37	947.39060865402
2	67495	56.38	947.52949765378
2	67496	56.39	947.66838665354
2	67497	56.4	947.8072756533
2	67500	56.41	947.94616465306
2	67501	56.42	948.08505365282
2	67520	56.43	948.22394265258
2	67521	56.44	948.36283165234
2	67522	56.45	948.5017206521
2	67541	56.46	948.64060965187
2	67542	56.47	948.77949865163
2	67543	56.48	948.91838765139
2	67544	56.49	949.05727665116
2	67545	56.5	949.19616565092
2	67548	56.51	949.33505465069
2	67549	56.52	949.47394365045
2	67568	56.53	949.61283265022
2	67569	56.54	949.75172164998
2	67570	56.55	949.89061064975
2	67589	56.56	950.02949964951
2	67590	56.57	950.16838864928
2	67591	56.58	950.30727764905
2	67592	56.59	950.44616664881
2	67593	56.6	950.58505564858
2	67596	56.61	950.72394464835
2	67597	56.62	950.86283364812
2	67616	56.63	951.00172264789
2	67617	56.64	951.14061164766
2	67618	56.65	951.27950064743
2	67637	56.66	951.4183896472
2	67638	56.67	951.55727864697
2	67639	56.68	951.69616764674
2	67640	56.69	951.83505664651
2	67641	56.7	951.97394564628
2	67644	56.71	952.11283464605
2	67645	56.72	952.25172364582
2	67664	56.73	952.3906126456
2	67665	56.74	952.52950164537
2	67666	56.75	952.66839064514
2	67685	56.76	952.80727964491
2	67686	56.77	952.94616864469
2	67687	56.78	953.08505764446
2	67688	56.79	953.22394664424
2	67689	56.8	953.36283564401
2	67692	56.81	953.50172464379
2	67693	56.82	953.64061364356
2	67712	56.83	953.77950264334
2	67713	56.84	953.91839164312
2	67714	56.85	954.05728064289
2	67733	56.86	954.19616964267
2	67734	56.87	954.33505864245
2	67735	56.88	954.47394764222
2	67736	56.89	954.612836642
2	67737	56.9	954.75172564178
2	67740	56.91	954.89061464156
2	67741	56.92	955.02950364134
2	67760	56.93	955.16839264112
2	67761	56.94	955.3072816409
2	67762	56.95	955.44617064068
2	67781	56.96	955.58505964046
2	67782	56.97	955.72394864024
2	67783	56.98	955.86283764002
2	67784	56.99	956.0017266398
2	67787	57	956.14061563958
2	67790	57.01	956.27950463937
2	67791	57.02	956.41839363915
2	67810	57.03	956.55728263893
2	67811	57.04	956.69617163871
2	67812	57.05	956.8350606385
2	67831	57.06	956.97394963828
2	67832	57.07	957.11283863806
2	67833	57.08	957.25172763785
2	67834	57.09	957.39061663763
2	67835	57.1	957.52950563742
2	67838	57.11	957.66839463721
2	67839	57.12	957.80728363699
2	67858	57.13	957.94617263678
2	67859	57.14	958.08506163656
2	67860	57.15	958.22395063635
2	67879	57.16	958.36283963614
2	67880	57.17	958.50172863593
2	67881	57.18	958.64061763571
2	67882	57.19	958.7795066355
2	67883	57.2	958.91839563529
2	67886	57.21	959.05728463508
2	67887	57.22	959.19617363487
2	67906	57.23	959.33506263466
2	67907	57.24	959.47395163445
2	67908	57.25	959.61284063424
2	67927	57.26	959.75172963403
2	67928	57.27	959.89061863382
2	67929	57.28	960.02950763361
2	67930	57.29	960.1683966334
2	67931	57.3	960.30728563319
2	67934	57.31	960.44617463299
2	67935	57.32	960.58506363278
2	67954	57.33	960.72395263257
2	67955	57.34	960.86284163236
2	67956	57.35	961.00173063216
2	67975	57.36	961.14061963195
2	67976	57.37	961.27950863174
2	67977	57.38	961.41839763154
2	67978	57.39	961.55728663133
2	67979	57.4	961.69617563113
2	67982	57.41	961.83506463092
2	67983	57.42	961.97395363072
2	68002	57.43	962.11284263052
2	68003	57.44	962.25173163031
2	68004	57.45	962.39062063011
2	68023	57.46	962.52950962991
2	68024	57.47	962.6683986297
2	68025	57.48	962.8072876295
2	68026	57.49	962.9461766293
2	68027	57.5	963.0850656291
2	68030	57.51	963.22395462889
2	68031	57.52	963.36284362869
2	68050	57.53	963.50173262849
2	68051	57.54	963.64062162829
2	68052	57.55	963.77951062809
2	68071	57.56	963.91839962789
2	68072	57.57	964.05728862769
2	68073	57.58	964.19617762749
2	68074	57.59	964.33506662729
2	68075	57.6	964.4739556271
2	68078	57.61	964.6128446269
2	68079	57.62	964.7517336267
2	68098	57.63	964.8906226265
2	68099	57.64	965.0295116263
2	68100	57.65	965.16840062611
2	68119	57.66	965.30728962591
2	68120	57.67	965.44617862571
2	68121	57.68	965.58506762552
2	68122	57.69	965.72395662532
2	68123	57.7	965.86284562513
2	68126	57.71	966.00173462493
2	68127	57.72	966.14062362474
2	68146	57.73	966.27951262454
2	68147	57.74	966.41840162435
2	68148	57.75	966.55729062415
2	68167	57.76	966.69617962396
2	68168	57.77	966.83506862377
2	68169	57.78	966.97395762357
2	68170	57.79	967.11284662338
2	68171	57.8	967.25173562319
2	68174	57.81	967.39062462299
2	68175	57.82	967.5295136228
2	68194	57.83	967.66840262261
2	68195	57.84	967.80729162242
2	68196	57.85	967.94618062223
2	68215	57.86	968.08506962204
2	68216	57.87	968.22395862185
2	68217	57.88	968.36284762166
2	68218	57.89	968.50173662147
2	68219	57.9	968.64062562128
2	68222	57.91	968.77951462109
2	68223	57.92	968.9184036209
2	68242	57.93	969.05729262071
2	68243	57.94	969.19618162052
2	68244	57.95	969.33507062033
2	68263	57.96	969.47395962015
2	68264	57.97	969.61284861996
2	68265	57.98	969.75173761977
2	68266	57.99	969.89062661958
2	68269	58	970.0295156194
2	68272	58.01	970.16840461921
2	68273	58.02	970.30729361903
2	68292	58.03	970.44618261884
2	68293	58.04	970.58507161865
2	68294	58.05	970.72396061847
2	68313	58.06	970.86284961828
2	68314	58.07	971.0017386181
2	68315	58.08	971.14062761791
2	68316	58.09	971.27951661773
2	68317	58.1	971.41840561755
2	68320	58.11	971.55729461736
2	68321	58.12	971.69618361718
2	68340	58.13	971.835072617
2	68341	58.14	971.97396161681
2	68342	58.15	972.11285061663
2	68361	58.16	972.25173961645
2	68362	58.17	972.39062861627
2	68363	58.18	972.52951761609
2	68364	58.19	972.66840661591
2	68365	58.2	972.80729561573
2	68368	58.21	972.94618461554
2	68369	58.22	973.08507361536
2	68388	58.23	973.22396261518
2	68389	58.24	973.362851615
2	68390	58.25	973.50174061482
2	68409	58.26	973.64062961465
2	68410	58.27	973.77951861447
2	68411	58.28	973.91840761429
2	68412	58.29	974.05729661411
2	68413	58.3	974.19618561393
2	68416	58.31	974.33507461375
2	68417	58.32	974.47396361358
2	68436	58.33	974.6128526134
2	68437	58.34	974.75174161322
2	68438	58.35	974.89063061304
2	68457	58.36	975.02951961287
2	68458	58.37	975.16840861269
2	68459	58.38	975.30729761252
2	68460	58.39	975.44618661234
2	68461	58.4	975.58507561217
2	68464	58.41	975.72396461199
2	68465	58.42	975.86285361182
2	68484	58.43	976.00174261164
2	68485	58.44	976.14063161147
2	68486	58.45	976.27952061129
2	68505	58.46	976.41840961112
2	68506	58.47	976.55729861095
2	68507	58.48	976.69618761077
2	68508	58.49	976.8350766106
2	68509	58.5	976.97396561043
2	68512	58.51	977.11285461025
2	68513	58.52	977.25174361008
2	68532	58.53	977.39063260991
2	68533	58.54	977.52952160974
2	68534	58.55	977.66841060957
2	68553	58.56	977.8072996094
2	68554	58.57	977.94618860923
2	68555	58.58	978.08507760906
2	68556	58.59	978.22396660889
2	68557	58.6	978.36285560872
2	68560	58.61	978.50174460855
2	68561	58.62	978.64063360838
2	68580	58.63	978.77952260821
2	68581	58.64	978.91841160804
2	68582	58.65	979.05730060787
2	68601	58.66	979.1961896077
2	68602	58.67	979.33507860753
2	68603	58.68	979.47396760736
2	68604	58.69	979.6128566072
2	68605	58.7	979.75174560703
2	68608	58.71	979.89063460686
2	68609	58.72	980.0295236067
2	68628	58.73	980.16841260653
2	68629	58.74	980.30730160636
2	68630	58.75	980.4461906062
2	68649	58.76	980.58507960603
2	68650	58.77	980.72396860587
2	68651	58.78	980.8628576057
2	68652	58.79	981.00174660554
2	68653	58.8	981.14063560537
2	68656	58.81	981.27952460521
2	68657	58.82	981.41841360504
2	68676	58.83	981.55730260488
2	68677	58.84	981.69619160471
2	68678	58.85	981.83508060455
2	68697	58.86	981.97396960439
2	68698	58.87	982.11285860422
2	68699	58.88	982.25174760406
2	68700	58.89	982.3906366039
2	68701	58.9	982.52952560374
2	68704	58.91	982.66841460358
2	68705	58.92	982.80730360341
2	68724	58.93	982.94619260325
2	68725	58.94	983.08508160309
2	68726	58.95	983.22397060293
2	68745	58.96	983.36285960277
2	68746	58.97	983.50174860261
2	68747	58.98	983.64063760245
2	68748	58.99	983.77952660229
2	68751	59	983.91841560213
2	68754	59.01	984.05730460197
2	68755	59.02	984.19619360181
2	68774	59.03	984.33508260165
2	68775	59.04	984.47397160149
2	68776	59.05	984.61286060133
2	68795	59.06	984.75174960118
2	68796	59.07	984.89063860102
2	68797	59.08	985.02952760086
2	68798	59.09	985.1684166007
2	68799	59.1	985.30730560055
2	68802	59.11	985.44619460039
2	68803	59.12	985.58508360023
2	68822	59.13	985.72397260008
2	68823	59.14	985.86286159992
2	68824	59.15	986.00175059976
2	68843	59.16	986.14063959961
2	68844	59.17	986.27952859945
2	68845	59.18	986.4184175993
2	68846	59.19	986.55730659914
2	68847	59.2	986.69619559899
2	68850	59.21	986.83508459883
2	68851	59.22	986.97397359868
2	68870	59.23	987.11286259852
2	68871	59.24	987.25175159837
2	68872	59.25	987.39064059822
2	68891	59.26	987.52952959806
2	68892	59.27	987.66841859791
2	68893	59.28	987.80730759776
2	68894	59.29	987.94619659761
2	68895	59.3	988.08508559745
2	68898	59.31	988.2239745973
2	68899	59.32	988.36286359715
2	68918	59.33	988.501752597
2	68919	59.34	988.64064159685
2	68920	59.35	988.77953059669
2	68939	59.36	988.91841959654
2	68940	59.37	989.05730859639
2	68941	59.38	989.19619759624
2	68942	59.39	989.33508659609
2	68943	59.4	989.47397559594
2	68946	59.41	989.61286459579
2	68947	59.42	989.75175359564
2	68966	59.43	989.89064259549
2	68967	59.44	990.02953159534
2	68968	59.45	990.1684205952
2	68987	59.46	990.30730959505
2	68988	59.47	990.4461985949
2	68989	59.48	990.58508759475
2	68990	59.49	990.7239765946
2	68991	59.5	990.86286559446
2	68994	59.51	991.00175459431
2	68995	59.52	991.14064359416
2	69014	59.53	991.27953259401
2	69015	59.54	991.41842159387
2	69016	59.55	991.55731059372
2	69035	59.56	991.69619959357
2	69036	59.57	991.83508859343
2	69037	59.58	991.97397759328
2	69038	59.59	992.11286659314
2	69039	59.6	992.25175559299
2	69042	59.61	992.39064459285
2	69043	59.62	992.5295335927
2	69062	59.63	992.66842259256
2	69063	59.64	992.80731159241
2	69064	59.65	992.94620059227
2	69083	59.66	993.08508959212
2	69084	59.67	993.22397859198
2	69085	59.68	993.36286759183
2	69086	59.69	993.50175659169
2	69087	59.7	993.64064559155
2	69090	59.71	993.77953459141
2	69091	59.72	993.91842359126
2	69110	59.73	994.05731259112
2	69111	59.74	994.19620159098
2	69112	59.75	994.33509059084
2	69131	59.76	994.47397959069
2	69132	59.77	994.61286859055
2	69133	59.78	994.75175759041
2	69134	59.79	994.89064659027
2	69135	59.8	995.02953559013
2	69138	59.81	995.16842458999
2	69139	59.82	995.30731358985
2	69158	59.83	995.44620258971
2	69159	59.84	995.58509158957
2	69160	59.85	995.72398058943
2	69179	59.86	995.86286958929
2	69180	59.87	996.00175858915
2	69181	59.88	996.14064758901
2	69182	59.89	996.27953658887
2	69183	59.9	996.41842558873
2	69186	59.91	996.55731458859
2	69187	59.92	996.69620358845
2	69206	59.93	996.83509258832
2	69207	59.94	996.97398158818
2	69208	59.95	997.11287058804
2	69227	59.96	997.2517595879
2	69228	59.97	997.39064858777
2	69229	59.98	997.52953758763
2	69230	59.99	997.66842658749
2	69233	60	997.80731558736
2	69236	60.01	997.94620458722
2	69237	60.02	998.08509358708
2	69256	60.03	998.22398258695
2	69257	60.04	998.36287158681
2	69258	60.05	998.50176058668
2	69277	60.06	998.64064958654
2	69278	60.07	998.77953858641
2	69279	60.08	998.91842758627
2	69280	60.09	999.05731658614
2	69281	60.1	999.196205586
2	69284	60.11	999.33509458587
2	69285	60.12	999.47398358573
2	69304	60.13	999.6128725856
2	69305	60.14	999.75176158547
2	69306	60.15	999.89065058533
2	69325	60.16	1000.0295395852
2	69326	60.17	1000.1684285851
2	69327	60.18	1000.3073175849
2	69328	60.19	1000.4462065848
2	69329	60.2	1000.5850955847
2	69332	60.21	1000.7239845845
2	69333	60.22	1000.8628735844
2	69352	60.23	1001.0017625843
2	69353	60.24	1001.1406515841
2	69354	60.25	1001.279540584
2	69373	60.26	1001.4184295839
2	69374	60.27	1001.5573185837
2	69375	60.28	1001.6962075836
2	69376	60.29	1001.8350965835
2	69377	60.3	1001.9739855834
2	69380	60.31	1002.1128745832
2	69381	60.32	1002.2517635831
2	69400	60.33	1002.390652583
2	69401	60.34	1002.5295415828
2	69402	60.35	1002.6684305827
2	69421	60.36	1002.8073195826
2	69422	60.37	1002.9462085824
2	69423	60.38	1003.0850975823
2	69424	60.39	1003.2239865822
2	69425	60.4	1003.3628755821
2	69428	60.41	1003.5017645819
2	69429	60.42	1003.6406535818
2	69448	60.43	1003.7795425817
2	69449	60.44	1003.9184315816
2	69450	60.45	1004.0573205814
2	69469	60.46	1004.1962095813
2	69470	60.47	1004.3350985812
2	69471	60.48	1004.473987581
2	69472	60.49	1004.6128765809
2	69473	60.5	1004.7517655808
2	69476	60.51	1004.8906545807
2	69477	60.52	1005.0295435805
2	69496	60.53	1005.1684325804
2	69497	60.54	1005.3073215803
2	69498	60.55	1005.4462105802
2	69517	60.56	1005.58509958
2	69518	60.57	1005.7239885799
2	69519	60.58	1005.8628775798
2	69520	60.59	1006.0017665797
2	69521	60.6	1006.1406555795
2	69524	60.61	1006.2795445794
2	69525	60.62	1006.4184335793
2	69544	60.63	1006.5573225792
2	69545	60.64	1006.696211579
2	69546	60.65	1006.8351005789
2	69565	60.66	1006.9739895788
2	69566	60.67	1007.1128785787
2	69567	60.68	1007.2517675786
2	69568	60.69	1007.3906565784
2	69569	60.7	1007.5295455783
2	69572	60.71	1007.6684345782
2	69573	60.72	1007.8073235781
2	69592	60.73	1007.9462125779
2	69593	60.74	1008.0851015778
2	69594	60.75	1008.2239905777
2	69613	60.76	1008.3628795776
2	69614	60.77	1008.5017685775
2	69615	60.78	1008.6406575773
2	69616	60.79	1008.7795465772
2	69617	60.8	1008.9184355771
2	69620	60.81	1009.057324577
2	69621	60.82	1009.1962135769
2	69640	60.83	1009.3351025767
2	69641	60.84	1009.4739915766
2	69642	60.85	1009.6128805765
2	69661	60.86	1009.7517695764
2	69662	60.87	1009.8906585763
2	69663	60.88	1010.0295475761
2	69664	60.89	1010.168436576
2	69665	60.9	1010.3073255759
2	69668	60.91	1010.4462145758
2	69669	60.92	1010.5851035757
2	69688	60.93	1010.7239925755
2	69689	60.94	1010.8628815754
2	69690	60.95	1011.0017705753
2	69709	60.96	1011.1406595752
2	69710	60.97	1011.2795485751
2	69711	60.98	1011.418437575
2	69712	60.99	1011.5573265748
2	69715	61	1011.6962155747
2	69718	61.01	1011.8351045746
2	69719	61.02	1011.9739935745
2	69738	61.03	1012.1128825744
2	69739	61.04	1012.2517715743
2	69740	61.05	1012.3906605741
2	69759	61.06	1012.529549574
2	69760	61.07	1012.6684385739
2	69761	61.08	1012.8073275738
2	69762	61.09	1012.9462165737
2	69763	61.1	1013.0851055736
2	69766	61.11	1013.2239945734
2	69767	61.12	1013.3628835733
2	69786	61.13	1013.5017725732
2	69787	61.14	1013.6406615731
2	69788	61.15	1013.779550573
2	69807	61.16	1013.9184395729
2	69808	61.17	1014.0573285728
2	69809	61.18	1014.1962175726
2	69810	61.19	1014.3351065725
2	69811	61.2	1014.4739955724
2	69814	61.21	1014.6128845723
2	69815	61.22	1014.7517735722
2	69834	61.23	1014.8906625721
2	69835	61.24	1015.029551572
2	69836	61.25	1015.1684405719
2	69855	61.26	1015.3073295717
2	69856	61.27	1015.4462185716
2	69857	61.28	1015.5851075715
2	69858	61.29	1015.7239965714
2	69859	61.3	1015.8628855713
2	69862	61.31	1016.0017745712
2	69863	61.32	1016.1406660221
2	69874	61.33	1016.2795647778
2	69875	61.34	1016.4184755972
2	69876	61.35	1016.5574031456
2	69877	61.36	1016.6963519969
2	69878	61.37	1016.8353266355
2	69879	61.38	1016.9743314577
2	69880	61.39	1017.1133707735
2	69881	61.4	1017.2524488086
2	69883	61.41	1017.3915697058
2	69884	61.42	1017.5307375265
2	69895	61.43	1017.6699562528
2	69896	61.44	1017.8092297883
2	69897	61.45	1017.9485619604
2	69898	61.46	1018.0879565212
2	69899	61.47	1018.2274171495
2	69900	61.48	1018.3669474518
2	69901	61.49	1018.5065509638
2	69902	61.5	1018.646231152
2	69904	61.51	1018.785991415
2	69905	61.52	1018.9258350845
2	69916	61.53	1019.0657654273
2	69917	61.54	1019.2057856456
2	69918	61.55	1019.3458988793
2	69919	61.56	1019.4861082064
2	69920	61.57	1019.6264166448
2	69921	61.58	1019.766827153
2	69922	61.59	1019.9073426316
2	69923	61.6	1020.0479659244
2	69925	61.61	1020.1886998192
2	69926	61.62	1020.3295470495
2	69937	61.63	1020.4705102949
2	69938	61.64	1020.6115921824
2	69939	61.65	1020.7527952879
2	69940	61.66	1020.8941221364
2	69941	61.67	1021.0355752036
2	69942	61.68	1021.1771569165
2	69943	61.69	1021.3188696547
2	69944	61.7	1021.4607157509
2	69946	61.71	1021.6026974923
2	69947	61.72	1021.7448171211
2	69958	61.73	1021.8870768356
2	69959	61.74	1022.029478791
2	69960	61.75	1022.1720251002
2	69961	61.76	1022.3147178347
2	69962	61.77	1022.4575590254
2	69963	61.78	1022.6005506634
2	69964	61.79	1022.7436947006
2	69965	61.8	1022.8869930508
2	69967	61.81	1023.0304475902
2	69968	61.82	1023.1740601582
2	69979	61.83	1023.3178325583
2	69980	61.84	1023.4617665583
2	69981	61.85	1023.6058638917
2	69982	61.86	1023.7501262577
2	69983	61.87	1023.8945553225
2	69984	61.88	1024.0391527193
2	69985	61.89	1024.1839200495
2	69986	61.9	1024.328858883
2	69988	61.91	1024.473970759
2	69989	61.92	1024.6192571865
2	70000	61.93	1024.7647196448

