version 3
run OvertakeNoGui-206-20241104-10:02:32-91215
attr configname OvertakeNoGui
attr datetime 20241104-10:02:32
attr datetimef 20241104-100232
attr experiment OvertakeNoGui
attr inifile omnetpp.ini
attr iterationvars "$leaderHeadway=1.2, $leaderSpeed=50, $controller=0, $pCSpeed=54, $pDeltaC=504"
attr iterationvarsd leaderHeadway=1.2/leaderSpeed=50/controller=0/pCSpeed=54/pDeltaC=504
attr iterationvarsf leaderHeadway=1.2,leaderSpeed=50,controller=0,pCSpeed=54,pDeltaC=504-
attr measurement "$leaderHeadway=1.2, $leaderSpeed=50, $controller=0, $pCSpeed=54, $pDeltaC=504"
attr network Overtake
attr processid 91215
attr repetition 0
attr replication #0
attr resultdir results
attr runnumber 206
attr seedset 0
itervar controller 0
itervar leaderHeadway 1.2
itervar leaderSpeed 50
itervar pCSpeed 54
itervar pDeltaC 504
config image-path ../../../../veins/images;../../images
config *.manager.command "\"sumo\""
config *.manager.ignoreGuiCommands true
config *.node[*].scenario_type "\"OvertakeScenario\""
config output-vector-file results/OvertakeNoGui_54_504_0.vec
config output-scalar-file results/OvertakeNoGui_54_504_0.sca
config cmdenv-express-mode false
config cmdenv-autoflush true
config cmdenv-status-frequency 10s
config num-rngs 6
config cmdenv-output-file log.txt
config cmdenv-redirect-output true
config network Overtake
config debug-on-errors true
config print-undisposed true
config *.playgroundSizeX 65000m
config *.playgroundSizeY 25000m
config *.playgroundSizeZ 50m
config sim-time-limit "360 s"
config *.annotations.draw false
config *.obstacles.debug false
config *.world.useTorus false
config *.world.use2D false
config *.manager.updateInterval 0.01s
config *.manager.host "\"localhost\""
config *.manager.moduleType "\"vtypeauto=org.car2x.plexe.PlatoonCar vtypehuman=0\""
config *.manager.moduleName "\"vtypeauto=node vtypehuman=0\""
config *.manager.moduleDisplayString "\"\""
config *.manager.autoShutdown true
config *.manager.margin 25
config *.manager.order -1
config *.connectionManager.sendDirect true
config *.connectionManager.maxInterfDist 2600m
config *.connectionManager.drawMaxIntfDist false
config *.**.nic.mac1609_4.useServiceChannel false
config *.**.nic.mac1609_4.txPower 100mW
config *.**.nic.mac1609_4.bitrate 6Mbps
config *.**.nic.mac1609_4.useAcks true
config *.**.nic.mac1609_4.ackErrorRate 0.0
config *.**.nic.mac1609_4.frameErrorRate 0.0
config *.**.nic.phy80211p.minPowerLevel -94dBm
config *.**.nic.phy80211p.maxTXPower 100mW
config *.**.nic.phy80211p.useNoiseFloor true
config *.**.nic.phy80211p.noiseFloor -95dBm
config *.**.nic.phy80211p.decider "xmldoc(\"config.xml\")"
config *.**.nic.phy80211p.analogueModels "xmldoc(\"config.xml\")"
config *.**.nic.phy80211p.usePropagationDelay true
config *.node[*].mobility.x 0
config *.node[*].mobility.y 0
config *.node[*].mobility.z 1.895
config *.shockwave[*].mobility.x 0
config *.shockwave[*].mobility.y 0
config *.shockwave[*].mobility.z 1.895
config seed-set 0
config **.seed 0
config *.node[*].prot.rng-0 2
config *.node[*].appl.rng-0 3
config *.node[*].scenario.rng-0 4
config *.manager.configFile "\"./sumocfg/overtake.sumo.cfg\""
config *.manager.launchConfig "xmldoc(\"./sumocfg/overtake.launchd.xml\")"
config *.node[*].helper_type "\"PositionHelper\""
config *.node[*].scenario.caccC1 0.5
config *.node[*].scenario.caccXi 1
config *.node[*].scenario.caccOmegaN "0.2 Hz"
config *.node[*].scenario.caccSpacing "5 m"
config *.node[*].scenario.engineTau "0.5 s"
config *.node[*].scenario.ploegH "0.5 s"
config *.node[*].scenario.ploegKp 0.2
config *.node[*].scenario.ploegKd 0.7
config *.node[*].scenario.useRealisticEngine false
config *.node[*].scenario.targetController "\"CACC\""
config *.node[*].scenario.accHeadway "0.1 s"
config *.node[*].scenario.leaderHeadway "1.2 s"
config *.node[*].scenario.leaderSpeed "50 kmph"
config *.node[*].appl_type "\"OvertakeApp\""
config *.node[*].appl.*.scalar-recording true
config *.node[*].appl.*.vector-recording true
config *.node[*].appl.overtakeManeuver "\"OvertakeManeuver\""
config *.node[*].protocol_type "\"SimplePlatooningBeaconing\""
config *.node[*].prot.*.scalar-recording true
config *.node[*].prot.*.vector-recording true
config *.node[*].prot.beaconingInterval "0.1 s"
config *.node[*].prot.priority 4
config *.node[*].prot.packetSize 200
config *.node[*].prot.useControllerAcceleration true
config **.traffic_type "\"OvertakeTrafficManager\""
config **.traffic.platoonInsertTime "0.1 s"
config **.traffic.platooningVType "\"vtypeauto\""
config **.numericController 0
config **.traffic.platoonInsertDistance 5m
config **.traffic.platoonInsertHeadway 0s
config **.traffic.platoonLeaderHeadway 1.2s
config **.traffic.platoonASpeed 50kmph
config **.traffic.platoonBSpeed 100kmph
config **.traffic.platoonCSpeed 54kmph
config **.traffic.platoonSizeA 2
config **.traffic.platoonSizeB 1
config **.traffic.platoonSizeC 1
config **.traffic.initialPositionDeltaA 150
config **.traffic.initialPositionDeltaB 50
config **.traffic.initialPositionDeltaC 504
config **.traffic.controller "\"CACC\""
config **.scalar-recording true
config **.vector-recording true

vector 0 Overtake.node[0].mobility posx ETV
vector 1 Overtake.node[0].mobility posy ETV
vector 2 Overtake.node[1].mobility posx ETV
vector 3 Overtake.node[1].mobility posy ETV
vector 4 Overtake.node[2].mobility posx ETV
vector 5 Overtake.node[2].mobility posy ETV
vector 6 Overtake.node[3].mobility posx ETV
vector 7 Overtake.node[3].mobility posy ETV
vector 8 Overtake.node[0].mobility speed ETV
vector 9 Overtake.node[1].mobility speed ETV
vector 10 Overtake.node[2].mobility speed ETV
vector 11 Overtake.node[3].mobility speed ETV
vector 12 Overtake.node[0].mobility acceleration ETV
vector 13 Overtake.node[0].mobility co2emission ETV
vector 14 Overtake.node[1].mobility acceleration ETV
vector 15 Overtake.node[1].mobility co2emission ETV
vector 16 Overtake.node[2].mobility acceleration ETV
vector 17 Overtake.node[2].mobility co2emission ETV
vector 18 Overtake.node[3].mobility acceleration ETV
vector 19 Overtake.node[3].mobility co2emission ETV
vector 20 Overtake.node[0].appl distance ETV
vector 21 Overtake.node[0].appl relativeSpeed ETV
vector 22 Overtake.node[0].appl nodeId ETV
vector 23 Overtake.node[0].appl acceleration ETV
vector 24 Overtake.node[0].appl controllerAcceleration ETV
vector 25 Overtake.node[0].appl speed ETV
vector 26 Overtake.node[0].appl posx ETV
vector 27 Overtake.node[0].appl posy ETV
vector 28 Overtake.node[1].appl distance ETV
vector 29 Overtake.node[1].appl relativeSpeed ETV
vector 30 Overtake.node[1].appl nodeId ETV
vector 31 Overtake.node[1].appl acceleration ETV
vector 32 Overtake.node[1].appl controllerAcceleration ETV
vector 33 Overtake.node[1].appl speed ETV
vector 34 Overtake.node[1].appl posx ETV
vector 35 Overtake.node[1].appl posy ETV
vector 36 Overtake.node[2].appl distance ETV
vector 37 Overtake.node[2].appl relativeSpeed ETV
vector 38 Overtake.node[2].appl nodeId ETV
vector 39 Overtake.node[2].appl acceleration ETV
vector 40 Overtake.node[2].appl controllerAcceleration ETV
vector 41 Overtake.node[2].appl speed ETV
vector 42 Overtake.node[2].appl posx ETV
vector 43 Overtake.node[2].appl posy ETV
vector 44 Overtake.node[3].appl distance ETV
vector 45 Overtake.node[3].appl relativeSpeed ETV
vector 46 Overtake.node[3].appl nodeId ETV
vector 47 Overtake.node[3].appl acceleration ETV
vector 48 Overtake.node[3].appl controllerAcceleration ETV
vector 49 Overtake.node[3].appl speed ETV
vector 50 Overtake.node[3].appl posx ETV
vector 51 Overtake.node[3].appl posy ETV
vector 52 Overtake.node[1].prot leaderDelay ETV
vector 53 Overtake.node[1].prot leaderDelayId ETV
vector 54 Overtake.node[1].prot frontDelay ETV
vector 55 Overtake.node[1].prot frontDelayId ETV
vector 56 Overtake.node[0].prot nodeId ETV
vector 57 Overtake.node[0].prot busyTime ETV
vector 58 Overtake.node[0].prot collisions ETV
vector 59 Overtake.node[1].prot nodeId ETV
vector 60 Overtake.node[1].prot busyTime ETV
vector 61 Overtake.node[1].prot collisions ETV
vector 62 Overtake.node[2].prot nodeId ETV
vector 63 Overtake.node[2].prot busyTime ETV
vector 64 Overtake.node[2].prot collisions ETV
vector 65 Overtake.node[3].prot nodeId ETV
vector 66 Overtake.node[3].prot busyTime ETV
vector 67 Overtake.node[3].prot collisions ETV
48	26	0.21	0
48	176	0.31	0
48	326	0.41	0
48	476	0.51	0
48	626	0.61	0
48	776	0.71	0
48	926	0.81	0
48	1076	0.91	0
48	1230	1.01	0
48	1381	1.11	0
48	1532	1.21	0
48	1683	1.31	0
48	2046	1.41	0
48	2196	1.51	0
48	2346	1.61	0
48	2496	1.71	0
48	2646	1.81	0
48	2796	1.91	0
48	2950	2.01	0
48	3100	2.11	0
48	3250	2.21	0
48	3400	2.31	0
48	3763	2.41	0
48	3914	2.51	0
48	4064	2.61	0
48	4214	2.71	0
48	4364	2.81	0
48	4514	2.91	0
48	4668	3.01	0
48	4818	3.11	0
48	4968	3.21	0
48	5118	3.31	0
48	5269	3.41	0
48	5676	3.51	0
48	5826	3.61	0
48	5976	3.71	0
48	6126	3.81	0
48	6276	3.91	0
48	6430	4.01	0
48	6580	4.11	0
48	6730	4.21	0
48	6880	4.31	0
48	7030	4.41	0
48	7393	4.51	0
48	7544	4.61	0
48	7694	4.71	0
48	7844	4.81	0
48	7994	4.91	0
48	8148	5.01	0
48	8298	5.11	0
48	8448	5.21	0
48	8598	5.31	0
48	8748	5.41	0
48	8899	5.51	0
48	9262	5.61	0
48	9412	5.71	0
48	9562	5.81	0
48	9712	5.91	0
48	9866	6.01	0
48	10016	6.11	0
48	10166	6.21	0
48	10316	6.31	0
48	10466	6.41	0
48	10616	6.51	0
48	11023	6.61	0
48	11174	6.71	0
48	11324	6.81	0
48	11474	6.91	0
48	11628	7.01	0
48	11778	7.11	0
48	11928	7.21	0
48	12078	7.31	0
48	12228	7.41	0
48	12378	7.51	0
48	12529	7.61	0
48	12892	7.71	0
48	13042	7.81	0
48	13192	7.91	0
48	13346	8.01	0
48	13496	8.11	0
48	13646	8.21	0
48	13796	8.31	0
48	13946	8.41	0
48	14096	8.51	0
48	14246	8.61	0
48	14609	8.71	0
48	14760	8.81	0
48	14910	8.91	0
48	15064	9.01	0
48	15214	9.11	0
48	15364	9.21	0
48	15514	9.31	0
48	15664	9.41	0
48	15814	9.51	0
48	15964	9.61	0
48	16115	9.71	0
48	16522	9.81	0
48	16672	9.91	0
48	16826	10.01	0
48	16976	10.11	0
48	17126	10.21	0
48	17276	10.31	0
48	17426	10.41	0
48	17576	10.51	0
48	17726	10.61	0
48	17876	10.71	0
48	18239	10.81	0
48	18390	10.91	0
48	18544	11.01	0
48	18694	11.11	0
48	18844	11.21	0
48	18994	11.31	0
48	19144	11.41	0
48	19294	11.51	0
48	19444	11.61	0
48	19594	11.71	0
48	19745	11.81	0
48	20108	11.91	0
48	20262	12.01	0
48	20412	12.11	0
48	20562	12.21	0
48	20712	12.31	0
48	20862	12.41	0
48	21012	12.51	0
48	21162	12.61	0
48	21312	12.71	0
48	21462	12.81	0
48	21869	12.91	0
48	22024	13.01	0
48	22174	13.11	0
48	22324	13.21	0
48	22474	13.31	0
48	22624	13.41	0
48	22774	13.51	0
48	22924	13.61	0
48	23074	13.71	0
48	23224	13.81	0
48	23375	13.91	0
48	23742	14.01	0
48	23892	14.11	0
48	24042	14.21	0
48	24192	14.31	0
48	24342	14.41	0
48	24492	14.51	0
48	24642	14.61	0
48	24792	14.71	0
48	24942	14.81	0
48	25092	14.91	0
48	25459	15.01	0
48	25610	15.11	0
48	25760	15.21	0
48	25910	15.31	0
48	26060	15.41	0
48	26210	15.51	0
48	26360	15.61	0
48	26510	15.71	0
48	26660	15.81	0
48	26810	15.91	0
48	26964	16.01	0
48	27114	16.11	0
48	27264	16.21	0
48	27414	16.31	0
48	27564	16.41	0
48	27714	16.51	0
48	27864	16.61	0
48	28014	16.71	0
48	28164	16.81	0
48	28314	16.91	0
48	28468	17.01	0
48	28618	17.11	0
48	28768	17.21	0
48	28918	17.31	0
48	29068	17.41	0
48	29218	17.51	0
48	29368	17.61	0
48	29518	17.71	0
48	29668	17.81	0
48	29818	17.91	0
48	29972	18.01	0
48	30122	18.11	0
48	30272	18.21	0
48	30422	18.31	0
48	30572	18.41	0
48	30722	18.51	0
48	30872	18.61	0
48	31022	18.71	0
48	31172	18.81	0
48	31322	18.91	0
48	31476	19.01	0
48	31626	19.11	0
48	31776	19.21	0
48	31926	19.31	0
48	32076	19.41	0
48	32226	19.51	0
48	32376	19.61	0
48	32526	19.71	0
48	32676	19.81	0
48	32826	19.91	0
48	32980	20.01	0
48	33130	20.11	0
48	33280	20.21	0
48	33430	20.31	0
48	33580	20.41	0
48	33730	20.51	0
48	33880	20.61	0
48	34030	20.71	0
48	34180	20.81	0
48	34330	20.91	0
48	34484	21.01	0
48	34634	21.11	0
48	34784	21.21	0
48	34934	21.31	0
48	35084	21.41	0
48	35234	21.51	0
48	35384	21.61	0
48	35534	21.71	0
48	35684	21.81	0
48	35834	21.91	0
48	35988	22.01	0
48	36138	22.11	0
48	36288	22.21	0
48	36438	22.31	0
48	36588	22.41	0
48	36738	22.51	0
48	36888	22.61	0
48	37038	22.71	0
48	37188	22.81	0
48	37338	22.91	0
48	37492	23.01	0
48	37642	23.11	0
48	37792	23.21	0
48	37942	23.31	0
48	38092	23.41	0
48	38242	23.51	0
48	38392	23.61	0
48	38542	23.71	0
48	38692	23.81	0
48	38842	23.91	0
48	38996	24.01	0
48	39146	24.11	0
48	39296	24.21	0
48	39446	24.31	0
48	39596	24.41	0
48	39746	24.51	0
48	39896	24.61	0
48	40046	24.71	0
48	40196	24.81	0
48	40346	24.91	0
48	40500	25.01	0
48	40650	25.11	0
48	40800	25.21	0
48	40950	25.31	0
48	41100	25.41	0
48	41250	25.51	0
48	41400	25.61	0
48	41550	25.71	0
48	41700	25.81	0
48	41850	25.91	0
48	42004	26.01	0
48	42154	26.11	0
48	42304	26.21	0
48	42454	26.31	0
48	42604	26.41	0
48	42754	26.51	0
48	42904	26.61	0
48	43055	26.71	0
48	43205	26.81	0
48	43355	26.91	0
48	43509	27.01	0
48	43659	27.11	0
48	43809	27.21	0
48	43959	27.31	0
48	44109	27.41	0
48	44259	27.51	0
48	44409	27.61	0
48	44559	27.71	0
48	44709	27.81	0
48	44859	27.91	0
48	45013	28.01	0
48	45163	28.11	0
48	45313	28.21	0
48	45463	28.31	0
48	45613	28.41	0
48	45763	28.51	0
48	45913	28.61	0
48	46063	28.71	0
48	46213	28.81	0
48	46363	28.91	0
48	46517	29.01	0
48	46667	29.11	0
48	46817	29.21	0
48	46967	29.31	0
48	47117	29.41	0
48	47267	29.51	0
48	47417	29.61	0
48	47567	29.71	0
48	47717	29.81	0
48	47867	29.91	0
48	48021	30.01	0
48	48171	30.11	0
48	48321	30.21	0
48	48471	30.31	0
48	48621	30.41	0
48	48771	30.51	0
48	48921	30.61	0
48	49071	30.71	0
48	49221	30.81	0
48	49371	30.91	0
48	49525	31.01	0
48	49675	31.11	0
48	49825	31.21	0
48	49975	31.31	0
48	50125	31.41	0
48	50275	31.51	0
48	50425	31.61	0
48	50575	31.71	0
48	50725	31.81	0
48	50875	31.91	0
48	51029	32.01	0
48	51179	32.11	0
48	51329	32.21	0
48	51479	32.31	0
48	51629	32.41	0
48	51779	32.51	0
48	51929	32.61	0
48	52079	32.71	0
48	52229	32.81	0
48	52379	32.91	0
48	52533	33.01	0
48	52683	33.11	0
47	26	0.21	0
47	176	0.31	0
47	326	0.41	0
47	476	0.51	0
47	626	0.61	0
47	776	0.71	0
47	926	0.81	0
47	1076	0.91	0
47	1230	1.01	0
47	1381	1.11	0
47	1532	1.21	0
47	1683	1.31	0
47	2046	1.41	0
47	2196	1.51	0
47	2346	1.61	0
47	2496	1.71	0
47	2646	1.81	0
47	2796	1.91	0
47	2950	2.01	0
47	3100	2.11	0
47	3250	2.21	0
47	3400	2.31	0
47	3763	2.41	0
47	3914	2.51	0
47	4064	2.61	0
47	4214	2.71	0
47	4364	2.81	0
47	4514	2.91	0
47	4668	3.01	0
47	4818	3.11	0
47	4968	3.21	0
47	5118	3.31	0
47	5269	3.41	0
47	5676	3.51	0
47	5826	3.61	0
47	5976	3.71	0
47	6126	3.81	0
47	6276	3.91	0
47	6430	4.01	0
47	6580	4.11	0
47	6730	4.21	0
47	6880	4.31	0
47	7030	4.41	0
47	7393	4.51	0
47	7544	4.61	0
47	7694	4.71	0
47	7844	4.81	0
47	7994	4.91	0
47	8148	5.01	0
47	8298	5.11	0
47	8448	5.21	0
47	8598	5.31	0
47	8748	5.41	0
47	8899	5.51	0
47	9262	5.61	0
47	9412	5.71	0
47	9562	5.81	0
47	9712	5.91	0
47	9866	6.01	0
47	10016	6.11	0
47	10166	6.21	0
47	10316	6.31	0
47	10466	6.41	0
47	10616	6.51	0
47	11023	6.61	0
47	11174	6.71	0
47	11324	6.81	0
47	11474	6.91	0
47	11628	7.01	0
47	11778	7.11	0
47	11928	7.21	0
47	12078	7.31	0
47	12228	7.41	0
47	12378	7.51	0
47	12529	7.61	0
47	12892	7.71	0
47	13042	7.81	0
47	13192	7.91	0
47	13346	8.01	0
47	13496	8.11	0
47	13646	8.21	0
47	13796	8.31	0
47	13946	8.41	0
47	14096	8.51	0
47	14246	8.61	0
47	14609	8.71	0
47	14760	8.81	0
47	14910	8.91	0
47	15064	9.01	0
47	15214	9.11	0
47	15364	9.21	0
47	15514	9.31	0
47	15664	9.41	0
47	15814	9.51	0
47	15964	9.61	0
47	16115	9.71	0
47	16522	9.81	0
47	16672	9.91	0
47	16826	10.01	0
47	16976	10.11	0
47	17126	10.21	0
47	17276	10.31	0
47	17426	10.41	0
47	17576	10.51	0
47	17726	10.61	0
47	17876	10.71	0
47	18239	10.81	0
47	18390	10.91	0
47	18544	11.01	0
47	18694	11.11	0
47	18844	11.21	0
47	18994	11.31	0
47	19144	11.41	0
47	19294	11.51	0
47	19444	11.61	0
47	19594	11.71	0
47	19745	11.81	0
47	20108	11.91	0
47	20262	12.01	0
47	20412	12.11	0
47	20562	12.21	0
47	20712	12.31	0
47	20862	12.41	0
47	21012	12.51	0
47	21162	12.61	0
47	21312	12.71	0
47	21462	12.81	0
47	21869	12.91	0
47	22024	13.01	0
47	22174	13.11	0
47	22324	13.21	0
47	22474	13.31	0
47	22624	13.41	0
47	22774	13.51	0
47	22924	13.61	0
47	23074	13.71	0
47	23224	13.81	0
47	23375	13.91	0
47	23742	14.01	0
47	23892	14.11	0
47	24042	14.21	0
47	24192	14.31	0
47	24342	14.41	0
47	24492	14.51	0
47	24642	14.61	0
47	24792	14.71	0
47	24942	14.81	0
47	25092	14.91	0
47	25459	15.01	0
47	25610	15.11	0
47	25760	15.21	0
47	25910	15.31	0
47	26060	15.41	0
47	26210	15.51	0
47	26360	15.61	0
47	26510	15.71	0
47	26660	15.81	0
47	26810	15.91	0
47	26964	16.01	0
47	27114	16.11	0
47	27264	16.21	0
47	27414	16.31	0
47	27564	16.41	0
47	27714	16.51	0
47	27864	16.61	0
47	28014	16.71	0
47	28164	16.81	0
47	28314	16.91	0
47	28468	17.01	0
47	28618	17.11	0
47	28768	17.21	0
47	28918	17.31	0
47	29068	17.41	0
47	29218	17.51	0
47	29368	17.61	0
47	29518	17.71	0
47	29668	17.81	0
47	29818	17.91	0
47	29972	18.01	0
47	30122	18.11	0
47	30272	18.21	0
47	30422	18.31	0
47	30572	18.41	0
47	30722	18.51	0
47	30872	18.61	0
47	31022	18.71	0
47	31172	18.81	0
47	31322	18.91	0
47	31476	19.01	0
47	31626	19.11	0
47	31776	19.21	0
47	31926	19.31	0
47	32076	19.41	0
47	32226	19.51	0
47	32376	19.61	0
47	32526	19.71	0
47	32676	19.81	0
47	32826	19.91	0
47	32980	20.01	0
47	33130	20.11	0
47	33280	20.21	0
47	33430	20.31	0
47	33580	20.41	0
47	33730	20.51	0
47	33880	20.61	0
47	34030	20.71	0
47	34180	20.81	0
47	34330	20.91	0
47	34484	21.01	0
47	34634	21.11	0
47	34784	21.21	0
47	34934	21.31	0
47	35084	21.41	0
47	35234	21.51	0
47	35384	21.61	0
47	35534	21.71	0
47	35684	21.81	0
47	35834	21.91	0
47	35988	22.01	0
47	36138	22.11	0
47	36288	22.21	0
47	36438	22.31	0
47	36588	22.41	0
47	36738	22.51	0
47	36888	22.61	0
47	37038	22.71	0
47	37188	22.81	0
47	37338	22.91	0
47	37492	23.01	0
47	37642	23.11	0
47	37792	23.21	0
47	37942	23.31	0
47	38092	23.41	0
47	38242	23.51	0
47	38392	23.61	0
47	38542	23.71	0
47	38692	23.81	0
47	38842	23.91	0
47	38996	24.01	0
47	39146	24.11	0
47	39296	24.21	0
47	39446	24.31	0
47	39596	24.41	0
47	39746	24.51	0
47	39896	24.61	0
47	40046	24.71	0
47	40196	24.81	0
47	40346	24.91	0
47	40500	25.01	0
47	40650	25.11	0
47	40800	25.21	0
47	40950	25.31	0
47	41100	25.41	0
47	41250	25.51	0
47	41400	25.61	0
47	41550	25.71	0
47	41700	25.81	0
47	41850	25.91	0
47	42004	26.01	0
47	42154	26.11	0
47	42304	26.21	0
47	42454	26.31	0
47	42604	26.41	0
47	42754	26.51	0
47	42904	26.61	0
47	43055	26.71	0
47	43205	26.81	0
47	43355	26.91	0
47	43509	27.01	0
47	43659	27.11	0
47	43809	27.21	0
47	43959	27.31	0
47	44109	27.41	0
47	44259	27.51	0
47	44409	27.61	0
47	44559	27.71	0
47	44709	27.81	0
47	44859	27.91	0
47	45013	28.01	0
47	45163	28.11	0
47	45313	28.21	0
47	45463	28.31	0
47	45613	28.41	0
47	45763	28.51	0
47	45913	28.61	0
47	46063	28.71	0
47	46213	28.81	0
47	46363	28.91	0
47	46517	29.01	0
47	46667	29.11	0
47	46817	29.21	0
47	46967	29.31	0
47	47117	29.41	0
47	47267	29.51	0
47	47417	29.61	0
47	47567	29.71	0
47	47717	29.81	0
47	47867	29.91	0
47	48021	30.01	0
47	48171	30.11	0
47	48321	30.21	0
47	48471	30.31	0
47	48621	30.41	0
47	48771	30.51	0
47	48921	30.61	0
47	49071	30.71	0
47	49221	30.81	0
47	49371	30.91	0
47	49525	31.01	0
47	49675	31.11	0
47	49825	31.21	0
47	49975	31.31	0
47	50125	31.41	0
47	50275	31.51	0
47	50425	31.61	0
47	50575	31.71	0
47	50725	31.81	0
47	50875	31.91	0
47	51029	32.01	0
47	51179	32.11	0
47	51329	32.21	0
47	51479	32.31	0
47	51629	32.41	0
47	51779	32.51	0
47	51929	32.61	0
47	52079	32.71	0
47	52229	32.81	0
47	52379	32.91	0
47	52533	33.01	0
47	52683	33.11	0
51	26	0.21	1.6
51	176	0.31	1.6
51	326	0.41	1.6
51	476	0.51	1.6
51	626	0.61	1.6
51	776	0.71	1.6
51	926	0.81	1.6
51	1076	0.91	1.6
51	1230	1.01	1.6
51	1381	1.11	1.6
51	1532	1.21	1.6
51	1683	1.31	1.6
51	2046	1.41	1.6
51	2196	1.51	1.6
51	2346	1.61	1.6
51	2496	1.71	1.6
51	2646	1.81	1.6
51	2796	1.91	1.6
51	2950	2.01	1.6
51	3100	2.11	1.6
51	3250	2.21	1.6
51	3400	2.31	1.6
51	3763	2.41	1.6
51	3914	2.51	1.6
51	4064	2.61	1.6
51	4214	2.71	1.6
51	4364	2.81	1.6
51	4514	2.91	1.6
51	4668	3.01	1.6
51	4818	3.11	1.6
51	4968	3.21	1.6
51	5118	3.31	1.6
51	5269	3.41	1.6
51	5676	3.51	1.6
51	5826	3.61	1.6
51	5976	3.71	1.6
51	6126	3.81	1.6
51	6276	3.91	1.6
51	6430	4.01	1.6
51	6580	4.11	1.6
51	6730	4.21	1.6
51	6880	4.31	1.6
51	7030	4.41	1.6
51	7393	4.51	1.6
51	7544	4.61	1.6
51	7694	4.71	1.6
51	7844	4.81	1.6
51	7994	4.91	1.6
51	8148	5.01	1.6
51	8298	5.11	1.6
51	8448	5.21	1.6
51	8598	5.31	1.6
51	8748	5.41	1.6
51	8899	5.51	1.6
51	9262	5.61	1.6
51	9412	5.71	1.6
51	9562	5.81	1.6
51	9712	5.91	1.6
51	9866	6.01	1.6
51	10016	6.11	1.6
51	10166	6.21	1.6
51	10316	6.31	1.6
51	10466	6.41	1.6
51	10616	6.51	1.6
51	11023	6.61	1.6
51	11174	6.71	1.6
51	11324	6.81	1.6
51	11474	6.91	1.6
51	11628	7.01	1.6
51	11778	7.11	1.6
51	11928	7.21	1.6
51	12078	7.31	1.6
51	12228	7.41	1.6
51	12378	7.51	1.6
51	12529	7.61	1.6
51	12892	7.71	1.6
51	13042	7.81	1.6
51	13192	7.91	1.6
51	13346	8.01	1.6
51	13496	8.11	1.6
51	13646	8.21	1.6
51	13796	8.31	1.6
51	13946	8.41	1.6
51	14096	8.51	1.6
51	14246	8.61	1.6
51	14609	8.71	1.6
51	14760	8.81	1.6
51	14910	8.91	1.6
51	15064	9.01	1.6
51	15214	9.11	1.6
51	15364	9.21	1.6
51	15514	9.31	1.6
51	15664	9.41	1.6
51	15814	9.51	1.6
51	15964	9.61	1.6
51	16115	9.71	1.6
51	16522	9.81	1.6
51	16672	9.91	1.6
51	16826	10.01	1.6
51	16976	10.11	1.6
51	17126	10.21	1.6
51	17276	10.31	1.6
51	17426	10.41	1.6
51	17576	10.51	1.6
51	17726	10.61	1.6
51	17876	10.71	1.6
51	18239	10.81	1.6
51	18390	10.91	1.6
51	18544	11.01	1.6
51	18694	11.11	1.6
51	18844	11.21	1.6
51	18994	11.31	1.6
51	19144	11.41	1.6
51	19294	11.51	1.6
51	19444	11.61	1.6
51	19594	11.71	1.6
51	19745	11.81	1.6
51	20108	11.91	1.6
51	20262	12.01	1.6
51	20412	12.11	1.6
51	20562	12.21	1.6
51	20712	12.31	1.6
51	20862	12.41	1.6
51	21012	12.51	1.6
51	21162	12.61	1.6
51	21312	12.71	1.6
51	21462	12.81	1.6
51	21869	12.91	1.6
51	22024	13.01	1.6
51	22174	13.11	1.6
51	22324	13.21	1.6
51	22474	13.31	1.6
51	22624	13.41	1.6
51	22774	13.51	1.6
51	22924	13.61	1.6
51	23074	13.71	1.6
51	23224	13.81	1.6
51	23375	13.91	1.6
51	23742	14.01	1.6
51	23892	14.11	1.6
51	24042	14.21	1.6
51	24192	14.31	1.6
51	24342	14.41	1.6
51	24492	14.51	1.6
51	24642	14.61	1.6
51	24792	14.71	1.6
51	24942	14.81	1.6
51	25092	14.91	1.6
51	25459	15.01	1.6
51	25610	15.11	1.6
51	25760	15.21	1.6
51	25910	15.31	1.6
51	26060	15.41	1.6
51	26210	15.51	1.6
51	26360	15.61	1.6
51	26510	15.71	1.6
51	26660	15.81	1.6
51	26810	15.91	1.6
51	26964	16.01	1.6
51	27114	16.11	1.6
51	27264	16.21	1.6
51	27414	16.31	1.6
51	27564	16.41	1.6
51	27714	16.51	1.6
51	27864	16.61	1.6
51	28014	16.71	1.6
51	28164	16.81	1.6
51	28314	16.91	1.6
51	28468	17.01	1.6
51	28618	17.11	1.6
51	28768	17.21	1.6
51	28918	17.31	1.6
51	29068	17.41	1.6
51	29218	17.51	1.6
51	29368	17.61	1.6
51	29518	17.71	1.6
51	29668	17.81	1.6
51	29818	17.91	1.6
51	29972	18.01	1.6
51	30122	18.11	1.6
51	30272	18.21	1.6
51	30422	18.31	1.6
51	30572	18.41	1.6
51	30722	18.51	1.6
51	30872	18.61	1.6
51	31022	18.71	1.6
51	31172	18.81	1.6
51	31322	18.91	1.6
51	31476	19.01	1.6
51	31626	19.11	1.6
51	31776	19.21	1.6
51	31926	19.31	1.6
51	32076	19.41	1.6
51	32226	19.51	1.6
51	32376	19.61	1.6
51	32526	19.71	1.6
51	32676	19.81	1.6
51	32826	19.91	1.6
51	32980	20.01	1.6
51	33130	20.11	1.6
51	33280	20.21	1.6
51	33430	20.31	1.6
51	33580	20.41	1.6
51	33730	20.51	1.6
51	33880	20.61	1.6
51	34030	20.71	1.6
51	34180	20.81	1.6
51	34330	20.91	1.6
51	34484	21.01	1.6
51	34634	21.11	1.6
51	34784	21.21	1.6
51	34934	21.31	1.6
51	35084	21.41	1.6
51	35234	21.51	1.6
51	35384	21.61	1.6
51	35534	21.71	1.6
51	35684	21.81	1.6
51	35834	21.91	1.6
51	35988	22.01	1.6
51	36138	22.11	1.6
51	36288	22.21	1.6
51	36438	22.31	1.6
51	36588	22.41	1.6
51	36738	22.51	1.6
51	36888	22.61	1.6
51	37038	22.71	1.6
51	37188	22.81	1.6
51	37338	22.91	1.6
51	37492	23.01	1.6
51	37642	23.11	1.6
51	37792	23.21	1.6
51	37942	23.31	1.6
51	38092	23.41	1.6
51	38242	23.51	1.6
51	38392	23.61	1.6
51	38542	23.71	1.6
51	38692	23.81	1.6
51	38842	23.91	1.6
51	38996	24.01	1.6
51	39146	24.11	1.6
51	39296	24.21	1.6
51	39446	24.31	1.6
51	39596	24.41	1.6
51	39746	24.51	1.6
51	39896	24.61	1.6
51	40046	24.71	1.6
51	40196	24.81	1.6
51	40346	24.91	1.6
51	40500	25.01	1.6
51	40650	25.11	1.6
51	40800	25.21	1.6
51	40950	25.31	1.6
51	41100	25.41	1.6
51	41250	25.51	1.6
51	41400	25.61	1.6
51	41550	25.71	1.6
51	41700	25.81	1.6
51	41850	25.91	1.6
51	42004	26.01	1.6
51	42154	26.11	1.6
51	42304	26.21	1.6
51	42454	26.31	1.6
51	42604	26.41	1.6
51	42754	26.51	1.6
51	42904	26.61	1.6
51	43055	26.71	1.6
51	43205	26.81	1.6
51	43355	26.91	1.6
51	43509	27.01	1.6
51	43659	27.11	1.6
51	43809	27.21	1.6
51	43959	27.31	1.6
51	44109	27.41	1.6
51	44259	27.51	1.6
51	44409	27.61	1.6
51	44559	27.71	1.6
51	44709	27.81	1.6
51	44859	27.91	1.6
51	45013	28.01	1.6
51	45163	28.11	1.6
51	45313	28.21	1.6
51	45463	28.31	1.6
51	45613	28.41	1.6
51	45763	28.51	1.6
51	45913	28.61	1.6
51	46063	28.71	1.6
51	46213	28.81	1.6
51	46363	28.91	1.6
51	46517	29.01	1.6
51	46667	29.11	1.6
51	46817	29.21	1.6
51	46967	29.31	1.6
51	47117	29.41	1.6
51	47267	29.51	1.6
51	47417	29.61	1.6
51	47567	29.71	1.6
51	47717	29.81	1.6
51	47867	29.91	1.6
51	48021	30.01	1.6
51	48171	30.11	1.6
51	48321	30.21	1.6
51	48471	30.31	1.6
51	48621	30.41	1.6
51	48771	30.51	1.6
51	48921	30.61	1.6
51	49071	30.71	1.6
51	49221	30.81	1.6
51	49371	30.91	1.6
51	49525	31.01	1.6
51	49675	31.11	1.6
51	49825	31.21	1.6
51	49975	31.31	1.6
51	50125	31.41	1.6
51	50275	31.51	1.6
51	50425	31.61	1.6
51	50575	31.71	1.6
51	50725	31.81	1.6
51	50875	31.91	1.6
51	51029	32.01	1.6
51	51179	32.11	1.6
51	51329	32.21	1.6
51	51479	32.31	1.6
51	51629	32.41	1.6
51	51779	32.51	1.6
51	51929	32.61	1.6
51	52079	32.71	1.6
51	52229	32.81	1.6
51	52379	32.91	1.6
51	52533	33.01	1.6
51	52683	33.11	1.6
50	26	0.21	494.65
50	176	0.31	493.15
50	326	0.41	491.65
50	476	0.51	490.15
50	626	0.61	488.65
50	776	0.71	487.15
50	926	0.81	485.65
50	1076	0.91	484.15
50	1230	1.01	482.65
50	1381	1.11	481.15
50	1532	1.21	479.65
50	1683	1.31	478.15
50	2046	1.41	476.65
50	2196	1.51	475.15
50	2346	1.61	473.65
50	2496	1.71	472.15
50	2646	1.81	470.65
50	2796	1.91	469.15
50	2950	2.01	467.65
50	3100	2.11	466.15
50	3250	2.21	464.65
50	3400	2.31	463.15
50	3763	2.41	461.65
50	3914	2.51	460.15
50	4064	2.61	458.65
50	4214	2.71	457.15
50	4364	2.81	455.65
50	4514	2.91	454.15
50	4668	3.01	452.65
50	4818	3.11	451.15
50	4968	3.21	449.65
50	5118	3.31	448.15
50	5269	3.41	446.65
50	5676	3.51	445.15
50	5826	3.61	443.65
50	5976	3.71	442.15
50	6126	3.81	440.65
50	6276	3.91	439.15
50	6430	4.01	437.65
50	6580	4.11	436.15
50	6730	4.21	434.65
50	6880	4.31	433.15
50	7030	4.41	431.65
50	7393	4.51	430.15
50	7544	4.61	428.65
50	7694	4.71	427.15
50	7844	4.81	425.65
50	7994	4.91	424.15
50	8148	5.01	422.65
50	8298	5.11	421.15
50	8448	5.21	419.65
50	8598	5.31	418.15
50	8748	5.41	416.65
50	8899	5.51	415.15
50	9262	5.61	413.65
50	9412	5.71	412.15
50	9562	5.81	410.65
50	9712	5.91	409.15
50	9866	6.01	407.65
50	10016	6.11	406.15
50	10166	6.21	404.65
50	10316	6.31	403.15
50	10466	6.41	401.65
50	10616	6.51	400.15
50	11023	6.61	398.65
50	11174	6.71	397.15
50	11324	6.81	395.65
50	11474	6.91	394.15
50	11628	7.01	392.65
50	11778	7.11	391.15
50	11928	7.21	389.65
50	12078	7.31	388.15
50	12228	7.41	386.65
50	12378	7.51	385.15
50	12529	7.61	383.65
50	12892	7.71	382.15
50	13042	7.81	380.65
50	13192	7.91	379.15
50	13346	8.01	377.65
50	13496	8.11	376.15
50	13646	8.21	374.65
50	13796	8.31	373.15
50	13946	8.41	371.65
50	14096	8.51	370.15
50	14246	8.61	368.65
50	14609	8.71	367.15
50	14760	8.81	365.65
50	14910	8.91	364.15
50	15064	9.01	362.65
50	15214	9.11	361.15
50	15364	9.21	359.65
50	15514	9.31	358.15
50	15664	9.41	356.65
50	15814	9.51	355.15
50	15964	9.61	353.65
50	16115	9.71	352.15
50	16522	9.81	350.65
50	16672	9.91	349.15
50	16826	10.01	347.65
50	16976	10.11	346.15
50	17126	10.21	344.65
50	17276	10.31	343.15
50	17426	10.41	341.65
50	17576	10.51	340.15
50	17726	10.61	338.65
50	17876	10.71	337.15
50	18239	10.81	335.65
50	18390	10.91	334.15
50	18544	11.01	332.65
50	18694	11.11	331.15
50	18844	11.21	329.65
50	18994	11.31	328.15
50	19144	11.41	326.65
50	19294	11.51	325.15
50	19444	11.61	323.65
50	19594	11.71	322.15
50	19745	11.81	320.65
50	20108	11.91	319.15
50	20262	12.01	317.65
50	20412	12.11	316.15
50	20562	12.21	314.65
50	20712	12.31	313.15
50	20862	12.41	311.65
50	21012	12.51	310.15
50	21162	12.61	308.65
50	21312	12.71	307.15
50	21462	12.81	305.65
50	21869	12.91	304.15
50	22024	13.01	302.65
50	22174	13.11	301.15
50	22324	13.21	299.65
50	22474	13.31	298.15
50	22624	13.41	296.65
50	22774	13.51	295.15
50	22924	13.61	293.65
50	23074	13.71	292.15
50	23224	13.81	290.65
50	23375	13.91	289.15
50	23742	14.01	287.65
50	23892	14.11	286.15
50	24042	14.21	284.65
50	24192	14.31	283.15
50	24342	14.41	281.65
50	24492	14.51	280.15
50	24642	14.61	278.65
50	24792	14.71	277.15
50	24942	14.81	275.65
50	25092	14.91	274.15
50	25459	15.01	272.65
50	25610	15.11	271.15
50	25760	15.21	269.65
50	25910	15.31	268.15
50	26060	15.41	266.65
50	26210	15.51	265.15
50	26360	15.61	263.65
50	26510	15.71	262.15
50	26660	15.81	260.65
50	26810	15.91	259.15
50	26964	16.01	257.65
50	27114	16.11	256.15
50	27264	16.21	254.65
50	27414	16.31	253.15
50	27564	16.41	251.65
50	27714	16.51	250.15
50	27864	16.61	248.65
50	28014	16.71	247.15
50	28164	16.81	245.65
50	28314	16.91	244.15
50	28468	17.01	242.65
50	28618	17.11	241.15
50	28768	17.21	239.65
50	28918	17.31	238.15
50	29068	17.41	236.65
50	29218	17.51	235.15
50	29368	17.61	233.65
50	29518	17.71	232.15
50	29668	17.81	230.65
50	29818	17.91	229.15
50	29972	18.01	227.65
50	30122	18.11	226.15
50	30272	18.21	224.65
50	30422	18.31	223.15
50	30572	18.41	221.65
50	30722	18.51	220.15
50	30872	18.61	218.65
50	31022	18.71	217.15
50	31172	18.81	215.65
50	31322	18.91	214.15
50	31476	19.01	212.65
50	31626	19.11	211.15
50	31776	19.21	209.65
50	31926	19.31	208.15
50	32076	19.41	206.65
50	32226	19.51	205.15
50	32376	19.61	203.65
50	32526	19.71	202.15
50	32676	19.81	200.65
50	32826	19.91	199.15
50	32980	20.01	197.65
50	33130	20.11	196.15
50	33280	20.21	194.65
50	33430	20.31	193.15
50	33580	20.41	191.65
50	33730	20.51	190.15
50	33880	20.61	188.65
50	34030	20.71	187.15
50	34180	20.81	185.65
50	34330	20.91	184.15
50	34484	21.01	182.65
50	34634	21.11	181.15
50	34784	21.21	179.65
50	34934	21.31	178.15
50	35084	21.41	176.65
50	35234	21.51	175.15
50	35384	21.61	173.65
50	35534	21.71	172.15
50	35684	21.81	170.65
50	35834	21.91	169.15
50	35988	22.01	167.65
50	36138	22.11	166.15
50	36288	22.21	164.65
50	36438	22.31	163.15
50	36588	22.41	161.65
50	36738	22.51	160.15
50	36888	22.61	158.65
50	37038	22.71	157.15
50	37188	22.81	155.65
50	37338	22.91	154.15
50	37492	23.01	152.65
50	37642	23.11	151.15
50	37792	23.21	149.65
50	37942	23.31	148.15
50	38092	23.41	146.65
50	38242	23.51	145.15
50	38392	23.61	143.65
50	38542	23.71	142.15
50	38692	23.81	140.65
50	38842	23.91	139.15
50	38996	24.01	137.65
50	39146	24.11	136.15
50	39296	24.21	134.65
50	39446	24.31	133.15
50	39596	24.41	131.65
50	39746	24.51	130.15
50	39896	24.61	128.65
50	40046	24.71	127.15
50	40196	24.81	125.65
50	40346	24.91	124.15
50	40500	25.01	122.65
50	40650	25.11	121.15
50	40800	25.21	119.65
50	40950	25.31	118.15
50	41100	25.41	116.65
50	41250	25.51	115.15
50	41400	25.61	113.65
50	41550	25.71	112.15
50	41700	25.81	110.65
50	41850	25.91	109.15
50	42004	26.01	107.65
50	42154	26.11	106.15
50	42304	26.21	104.65
50	42454	26.31	103.15
50	42604	26.41	101.65
50	42754	26.51	100.15
50	42904	26.61	98.65
50	43055	26.71	97.15
50	43205	26.81	95.65
50	43355	26.91	94.15
50	43509	27.01	92.65
50	43659	27.11	91.15
50	43809	27.21	89.65
50	43959	27.31	88.15
50	44109	27.41	86.65
50	44259	27.51	85.15
50	44409	27.61	83.65
50	44559	27.71	82.15
50	44709	27.81	80.65
50	44859	27.91	79.15
50	45013	28.01	77.65
50	45163	28.11	76.15
50	45313	28.21	74.65
50	45463	28.31	73.15
50	45613	28.41	71.65
50	45763	28.51	70.15
50	45913	28.61	68.65
50	46063	28.71	67.15
50	46213	28.81	65.65
50	46363	28.91	64.15
50	46517	29.01	62.65
50	46667	29.11	61.15
50	46817	29.21	59.65
50	46967	29.31	58.15
50	47117	29.41	56.65
50	47267	29.51	55.15
50	47417	29.61	53.65
50	47567	29.71	52.15
50	47717	29.81	50.65
50	47867	29.91	49.15
50	48021	30.01	47.65
50	48171	30.11	46.15
50	48321	30.21	44.65
50	48471	30.31	43.15
50	48621	30.41	41.65
50	48771	30.51	40.15
50	48921	30.61	38.65
50	49071	30.71	37.15
50	49221	30.81	35.65
50	49371	30.91	34.15
50	49525	31.01	32.65
50	49675	31.11	31.15
50	49825	31.21	29.65
50	49975	31.31	28.15
50	50125	31.41	26.65
50	50275	31.51	25.15
50	50425	31.61	23.65
50	50575	31.71	22.15
50	50725	31.81	20.65
50	50875	31.91	19.15
50	51029	32.01	17.65
50	51179	32.11	16.15
50	51329	32.21	14.65
50	51479	32.31	13.15
50	51629	32.41	11.65
50	51779	32.51	10.15
50	51929	32.61	8.65
50	52079	32.71	7.15
50	52229	32.81	5.65
50	52379	32.91	4.15
50	52533	33.01	2.65
50	52683	33.11	1.15
49	26	0.21	15
49	176	0.31	15
49	326	0.41	15
49	476	0.51	15
49	626	0.61	15
49	776	0.71	15
49	926	0.81	15
49	1076	0.91	15
49	1230	1.01	15
49	1381	1.11	15
49	1532	1.21	15
49	1683	1.31	15
49	2046	1.41	15
49	2196	1.51	15
49	2346	1.61	15
49	2496	1.71	15
49	2646	1.81	15
49	2796	1.91	15
49	2950	2.01	15
49	3100	2.11	15
49	3250	2.21	15
49	3400	2.31	15
49	3763	2.41	15
49	3914	2.51	15
49	4064	2.61	15
49	4214	2.71	15
49	4364	2.81	15
49	4514	2.91	15
49	4668	3.01	15
49	4818	3.11	15
49	4968	3.21	15
49	5118	3.31	15
49	5269	3.41	15
49	5676	3.51	15
49	5826	3.61	15
49	5976	3.71	15
49	6126	3.81	15
49	6276	3.91	15
49	6430	4.01	15
49	6580	4.11	15
49	6730	4.21	15
49	6880	4.31	15
49	7030	4.41	15
49	7393	4.51	15
49	7544	4.61	15
49	7694	4.71	15
49	7844	4.81	15
49	7994	4.91	15
49	8148	5.01	15
49	8298	5.11	15
49	8448	5.21	15
49	8598	5.31	15
49	8748	5.41	15
49	8899	5.51	15
49	9262	5.61	15
49	9412	5.71	15
49	9562	5.81	15
49	9712	5.91	15
49	9866	6.01	15
49	10016	6.11	15
49	10166	6.21	15
49	10316	6.31	15
49	10466	6.41	15
49	10616	6.51	15
49	11023	6.61	15
49	11174	6.71	15
49	11324	6.81	15
49	11474	6.91	15
49	11628	7.01	15
49	11778	7.11	15
49	11928	7.21	15
49	12078	7.31	15
49	12228	7.41	15
49	12378	7.51	15
49	12529	7.61	15
49	12892	7.71	15
49	13042	7.81	15
49	13192	7.91	15
49	13346	8.01	15
49	13496	8.11	15
49	13646	8.21	15
49	13796	8.31	15
49	13946	8.41	15
49	14096	8.51	15
49	14246	8.61	15
49	14609	8.71	15
49	14760	8.81	15
49	14910	8.91	15
49	15064	9.01	15
49	15214	9.11	15
49	15364	9.21	15
49	15514	9.31	15
49	15664	9.41	15
49	15814	9.51	15
49	15964	9.61	15
49	16115	9.71	15
49	16522	9.81	15
49	16672	9.91	15
49	16826	10.01	15
49	16976	10.11	15
49	17126	10.21	15
49	17276	10.31	15
49	17426	10.41	15
49	17576	10.51	15
49	17726	10.61	15
49	17876	10.71	15
49	18239	10.81	15
49	18390	10.91	15
49	18544	11.01	15
49	18694	11.11	15
49	18844	11.21	15
49	18994	11.31	15
49	19144	11.41	15
49	19294	11.51	15
49	19444	11.61	15
49	19594	11.71	15
49	19745	11.81	15
49	20108	11.91	15
49	20262	12.01	15
49	20412	12.11	15
49	20562	12.21	15
49	20712	12.31	15
49	20862	12.41	15
49	21012	12.51	15
49	21162	12.61	15
49	21312	12.71	15
49	21462	12.81	15
49	21869	12.91	15
49	22024	13.01	15
49	22174	13.11	15
49	22324	13.21	15
49	22474	13.31	15
49	22624	13.41	15
49	22774	13.51	15
49	22924	13.61	15
49	23074	13.71	15
49	23224	13.81	15
49	23375	13.91	15
49	23742	14.01	15
49	23892	14.11	15
49	24042	14.21	15
49	24192	14.31	15
49	24342	14.41	15
49	24492	14.51	15
49	24642	14.61	15
49	24792	14.71	15
49	24942	14.81	15
49	25092	14.91	15
49	25459	15.01	15
49	25610	15.11	15
49	25760	15.21	15
49	25910	15.31	15
49	26060	15.41	15
49	26210	15.51	15
49	26360	15.61	15
49	26510	15.71	15
49	26660	15.81	15
49	26810	15.91	15
49	26964	16.01	15
49	27114	16.11	15
49	27264	16.21	15
49	27414	16.31	15
49	27564	16.41	15
49	27714	16.51	15
49	27864	16.61	15
49	28014	16.71	15
49	28164	16.81	15
49	28314	16.91	15
49	28468	17.01	15
49	28618	17.11	15
49	28768	17.21	15
49	28918	17.31	15
49	29068	17.41	15
49	29218	17.51	15
49	29368	17.61	15
49	29518	17.71	15
49	29668	17.81	15
49	29818	17.91	15
49	29972	18.01	15
49	30122	18.11	15
49	30272	18.21	15
49	30422	18.31	15
49	30572	18.41	15
49	30722	18.51	15
49	30872	18.61	15
49	31022	18.71	15
49	31172	18.81	15
49	31322	18.91	15
49	31476	19.01	15
49	31626	19.11	15
49	31776	19.21	15
49	31926	19.31	15
49	32076	19.41	15
49	32226	19.51	15
49	32376	19.61	15
49	32526	19.71	15
49	32676	19.81	15
49	32826	19.91	15
49	32980	20.01	15
49	33130	20.11	15
49	33280	20.21	15
49	33430	20.31	15
49	33580	20.41	15
49	33730	20.51	15
49	33880	20.61	15
49	34030	20.71	15
49	34180	20.81	15
49	34330	20.91	15
49	34484	21.01	15
49	34634	21.11	15
49	34784	21.21	15
49	34934	21.31	15
49	35084	21.41	15
49	35234	21.51	15
49	35384	21.61	15
49	35534	21.71	15
49	35684	21.81	15
49	35834	21.91	15
49	35988	22.01	15
49	36138	22.11	15
49	36288	22.21	15
49	36438	22.31	15
49	36588	22.41	15
49	36738	22.51	15
49	36888	22.61	15
49	37038	22.71	15
49	37188	22.81	15
49	37338	22.91	15
49	37492	23.01	15
49	37642	23.11	15
49	37792	23.21	15
49	37942	23.31	15
49	38092	23.41	15
49	38242	23.51	15
49	38392	23.61	15
49	38542	23.71	15
49	38692	23.81	15
49	38842	23.91	15
49	38996	24.01	15
49	39146	24.11	15
49	39296	24.21	15
49	39446	24.31	15
49	39596	24.41	15
49	39746	24.51	15
49	39896	24.61	15
49	40046	24.71	15
49	40196	24.81	15
49	40346	24.91	15
49	40500	25.01	15
49	40650	25.11	15
49	40800	25.21	15
49	40950	25.31	15
49	41100	25.41	15
49	41250	25.51	15
49	41400	25.61	15
49	41550	25.71	15
49	41700	25.81	15
49	41850	25.91	15
49	42004	26.01	15
49	42154	26.11	15
49	42304	26.21	15
49	42454	26.31	15
49	42604	26.41	15
49	42754	26.51	15
49	42904	26.61	15
49	43055	26.71	15
49	43205	26.81	15
49	43355	26.91	15
49	43509	27.01	15
49	43659	27.11	15
49	43809	27.21	15
49	43959	27.31	15
49	44109	27.41	15
49	44259	27.51	15
49	44409	27.61	15
49	44559	27.71	15
49	44709	27.81	15
49	44859	27.91	15
49	45013	28.01	15
49	45163	28.11	15
49	45313	28.21	15
49	45463	28.31	15
49	45613	28.41	15
49	45763	28.51	15
49	45913	28.61	15
49	46063	28.71	15
49	46213	28.81	15
49	46363	28.91	15
49	46517	29.01	15
49	46667	29.11	15
49	46817	29.21	15
49	46967	29.31	15
49	47117	29.41	15
49	47267	29.51	15
49	47417	29.61	15
49	47567	29.71	15
49	47717	29.81	15
49	47867	29.91	15
49	48021	30.01	15
49	48171	30.11	15
49	48321	30.21	15
49	48471	30.31	15
49	48621	30.41	15
49	48771	30.51	15
49	48921	30.61	15
49	49071	30.71	15
49	49221	30.81	15
49	49371	30.91	15
49	49525	31.01	15
49	49675	31.11	15
49	49825	31.21	15
49	49975	31.31	15
49	50125	31.41	15
49	50275	31.51	15
49	50425	31.61	15
49	50575	31.71	15
49	50725	31.81	15
49	50875	31.91	15
49	51029	32.01	15
49	51179	32.11	15
49	51329	32.21	15
49	51479	32.31	15
49	51629	32.41	15
49	51779	32.51	15
49	51929	32.61	15
49	52079	32.71	15
49	52229	32.81	15
49	52379	32.91	15
49	52533	33.01	15
49	52683	33.11	15
45	26	0.21	0
45	176	0.31	0
45	326	0.41	0
45	476	0.51	0
45	626	0.61	0
45	776	0.71	0
45	926	0.81	0
45	1076	0.91	0
45	1230	1.01	0
45	1381	1.11	0
45	1532	1.21	0
45	1683	1.31	0
45	2046	1.41	0
45	2196	1.51	0
45	2346	1.61	0
45	2496	1.71	0
45	2646	1.81	0
45	2796	1.91	0
45	2950	2.01	0
45	3100	2.11	0
45	3250	2.21	0
45	3400	2.31	0
45	3763	2.41	0
45	3914	2.51	0
45	4064	2.61	0
45	4214	2.71	0
45	4364	2.81	0
45	4514	2.91	0
45	4668	3.01	0
45	4818	3.11	0
45	4968	3.21	0
45	5118	3.31	0
45	5269	3.41	0
45	5676	3.51	0
45	5826	3.61	0
45	5976	3.71	0
45	6126	3.81	0
45	6276	3.91	0
45	6430	4.01	0
45	6580	4.11	0
45	6730	4.21	0
45	6880	4.31	0
45	7030	4.41	0
45	7393	4.51	0
45	7544	4.61	0
45	7694	4.71	0
45	7844	4.81	0
45	7994	4.91	0
45	8148	5.01	0
45	8298	5.11	0
45	8448	5.21	0
45	8598	5.31	0
45	8748	5.41	0
45	8899	5.51	0
45	9262	5.61	0
45	9412	5.71	0
45	9562	5.81	0
45	9712	5.91	0
45	9866	6.01	0
45	10016	6.11	0
45	10166	6.21	0
45	10316	6.31	0
45	10466	6.41	0
45	10616	6.51	0
45	11023	6.61	0
45	11174	6.71	0
45	11324	6.81	0
45	11474	6.91	0
45	11628	7.01	0
45	11778	7.11	0
45	11928	7.21	0
45	12078	7.31	0
45	12228	7.41	0
45	12378	7.51	0
45	12529	7.61	0
45	12892	7.71	0
45	13042	7.81	0
45	13192	7.91	0
45	13346	8.01	0
45	13496	8.11	0
45	13646	8.21	0
45	13796	8.31	0
45	13946	8.41	0
45	14096	8.51	0
45	14246	8.61	0
45	14609	8.71	0
45	14760	8.81	0
45	14910	8.91	0
45	15064	9.01	0
45	15214	9.11	0
45	15364	9.21	0
45	15514	9.31	0
45	15664	9.41	0
45	15814	9.51	0
45	15964	9.61	0
45	16115	9.71	0
45	16522	9.81	0
45	16672	9.91	0
45	16826	10.01	0
45	16976	10.11	0
45	17126	10.21	0
45	17276	10.31	0
45	17426	10.41	0
45	17576	10.51	0
45	17726	10.61	0
45	17876	10.71	0
45	18239	10.81	0
45	18390	10.91	0
45	18544	11.01	0
45	18694	11.11	0
45	18844	11.21	0
45	18994	11.31	0
45	19144	11.41	0
45	19294	11.51	0
45	19444	11.61	0
45	19594	11.71	0
45	19745	11.81	0
45	20108	11.91	0
45	20262	12.01	0
45	20412	12.11	0
45	20562	12.21	0
45	20712	12.31	0
45	20862	12.41	0
45	21012	12.51	0
45	21162	12.61	0
45	21312	12.71	0
45	21462	12.81	0
45	21869	12.91	0
45	22024	13.01	0
45	22174	13.11	0
45	22324	13.21	0
45	22474	13.31	0
45	22624	13.41	0
45	22774	13.51	0
45	22924	13.61	0
45	23074	13.71	0
45	23224	13.81	0
45	23375	13.91	0
45	23742	14.01	0
45	23892	14.11	0
45	24042	14.21	0
45	24192	14.31	0
45	24342	14.41	0
45	24492	14.51	0
45	24642	14.61	0
45	24792	14.71	0
45	24942	14.81	0
45	25092	14.91	0
45	25459	15.01	0
45	25610	15.11	0
45	25760	15.21	0
45	25910	15.31	0
45	26060	15.41	0
45	26210	15.51	0
45	26360	15.61	0
45	26510	15.71	0
45	26660	15.81	0
45	26810	15.91	0
45	26964	16.01	0
45	27114	16.11	0
45	27264	16.21	0
45	27414	16.31	0
45	27564	16.41	0
45	27714	16.51	0
45	27864	16.61	0
45	28014	16.71	0
45	28164	16.81	0
45	28314	16.91	0
45	28468	17.01	0
45	28618	17.11	0
45	28768	17.21	0
45	28918	17.31	0
45	29068	17.41	0
45	29218	17.51	0
45	29368	17.61	0
45	29518	17.71	0
45	29668	17.81	0
45	29818	17.91	0
45	29972	18.01	0
45	30122	18.11	0
45	30272	18.21	0
45	30422	18.31	0
45	30572	18.41	0
45	30722	18.51	0
45	30872	18.61	0
45	31022	18.71	0
45	31172	18.81	0
45	31322	18.91	0
45	31476	19.01	0
45	31626	19.11	0
45	31776	19.21	0
45	31926	19.31	0
45	32076	19.41	0
45	32226	19.51	0
45	32376	19.61	0
45	32526	19.71	0
45	32676	19.81	0
45	32826	19.91	0
45	32980	20.01	0
45	33130	20.11	0
45	33280	20.21	0
45	33430	20.31	0
45	33580	20.41	0
45	33730	20.51	0
45	33880	20.61	0
45	34030	20.71	0
45	34180	20.81	0
45	34330	20.91	0
45	34484	21.01	0
45	34634	21.11	0
45	34784	21.21	0
45	34934	21.31	0
45	35084	21.41	0
45	35234	21.51	0
45	35384	21.61	0
45	35534	21.71	0
45	35684	21.81	0
45	35834	21.91	0
45	35988	22.01	0
45	36138	22.11	0
45	36288	22.21	0
45	36438	22.31	0
45	36588	22.41	0
45	36738	22.51	0
45	36888	22.61	0
45	37038	22.71	0
45	37188	22.81	0
45	37338	22.91	0
45	37492	23.01	0
45	37642	23.11	0
45	37792	23.21	0
45	37942	23.31	0
45	38092	23.41	0
45	38242	23.51	0
45	38392	23.61	0
45	38542	23.71	0
45	38692	23.81	0
45	38842	23.91	0
45	38996	24.01	0
45	39146	24.11	0
45	39296	24.21	0
45	39446	24.31	0
45	39596	24.41	0
45	39746	24.51	0
45	39896	24.61	0
45	40046	24.71	0
45	40196	24.81	0
45	40346	24.91	0
45	40500	25.01	0
45	40650	25.11	0
45	40800	25.21	0
45	40950	25.31	0
45	41100	25.41	0
45	41250	25.51	0
45	41400	25.61	0
45	41550	25.71	0
45	41700	25.81	0
45	41850	25.91	0
45	42004	26.01	0
45	42154	26.11	0
45	42304	26.21	0
45	42454	26.31	0
45	42604	26.41	0
45	42754	26.51	0
45	42904	26.61	0
45	43055	26.71	0
45	43205	26.81	0
45	43355	26.91	0
45	43509	27.01	0
45	43659	27.11	0
45	43809	27.21	0
45	43959	27.31	0
45	44109	27.41	0
45	44259	27.51	0
45	44409	27.61	0
45	44559	27.71	0
45	44709	27.81	0
45	44859	27.91	0
45	45013	28.01	0
45	45163	28.11	0
45	45313	28.21	0
45	45463	28.31	0
45	45613	28.41	0
45	45763	28.51	0
45	45913	28.61	0
45	46063	28.71	0
45	46213	28.81	0
45	46363	28.91	0
45	46517	29.01	0
45	46667	29.11	0
45	46817	29.21	0
45	46967	29.31	0
45	47117	29.41	0
45	47267	29.51	0
45	47417	29.61	0
45	47567	29.71	0
45	47717	29.81	0
45	47867	29.91	0
45	48021	30.01	0
45	48171	30.11	0
45	48321	30.21	0
45	48471	30.31	0
45	48621	30.41	0
45	48771	30.51	0
45	48921	30.61	0
45	49071	30.71	0
45	49221	30.81	0
45	49371	30.91	0
45	49525	31.01	0
45	49675	31.11	0
45	49825	31.21	0
45	49975	31.31	0
45	50125	31.41	0
45	50275	31.51	0
45	50425	31.61	0
45	50575	31.71	0
45	50725	31.81	0
45	50875	31.91	0
45	51029	32.01	0
45	51179	32.11	0
45	51329	32.21	0
45	51479	32.31	0
45	51629	32.41	0
45	51779	32.51	0
45	51929	32.61	0
45	52079	32.71	0
45	52229	32.81	0
45	52379	32.91	0
45	52533	33.01	0
45	52683	33.11	0
44	26	0.21	-1
44	176	0.31	-1
44	326	0.41	-1
44	476	0.51	-1
44	626	0.61	-1
44	776	0.71	-1
44	926	0.81	-1
44	1076	0.91	-1
44	1230	1.01	-1
44	1381	1.11	-1
44	1532	1.21	-1
44	1683	1.31	-1
44	2046	1.41	-1
44	2196	1.51	-1
44	2346	1.61	-1
44	2496	1.71	-1
44	2646	1.81	-1
44	2796	1.91	-1
44	2950	2.01	-1
44	3100	2.11	-1
44	3250	2.21	-1
44	3400	2.31	-1
44	3763	2.41	-1
44	3914	2.51	-1
44	4064	2.61	-1
44	4214	2.71	-1
44	4364	2.81	-1
44	4514	2.91	-1
44	4668	3.01	-1
44	4818	3.11	-1
44	4968	3.21	-1
44	5118	3.31	-1
44	5269	3.41	-1
44	5676	3.51	-1
44	5826	3.61	-1
44	5976	3.71	-1
44	6126	3.81	-1
44	6276	3.91	-1
44	6430	4.01	-1
44	6580	4.11	-1
44	6730	4.21	-1
44	6880	4.31	-1
44	7030	4.41	-1
44	7393	4.51	-1
44	7544	4.61	-1
44	7694	4.71	-1
44	7844	4.81	-1
44	7994	4.91	-1
44	8148	5.01	-1
44	8298	5.11	-1
44	8448	5.21	-1
44	8598	5.31	-1
44	8748	5.41	-1
44	8899	5.51	-1
44	9262	5.61	-1
44	9412	5.71	-1
44	9562	5.81	-1
44	9712	5.91	-1
44	9866	6.01	-1
44	10016	6.11	-1
44	10166	6.21	-1
44	10316	6.31	-1
44	10466	6.41	-1
44	10616	6.51	-1
44	11023	6.61	-1
44	11174	6.71	-1
44	11324	6.81	-1
44	11474	6.91	-1
44	11628	7.01	-1
44	11778	7.11	-1
44	11928	7.21	-1
44	12078	7.31	-1
44	12228	7.41	-1
44	12378	7.51	-1
44	12529	7.61	-1
44	12892	7.71	-1
44	13042	7.81	-1
44	13192	7.91	-1
44	13346	8.01	-1
44	13496	8.11	-1
44	13646	8.21	-1
44	13796	8.31	-1
44	13946	8.41	-1
44	14096	8.51	-1
44	14246	8.61	-1
44	14609	8.71	-1
44	14760	8.81	-1
44	14910	8.91	-1
44	15064	9.01	-1
44	15214	9.11	-1
44	15364	9.21	-1
44	15514	9.31	-1
44	15664	9.41	-1
44	15814	9.51	-1
44	15964	9.61	-1
44	16115	9.71	-1
44	16522	9.81	-1
44	16672	9.91	-1
44	16826	10.01	-1
44	16976	10.11	-1
44	17126	10.21	-1
44	17276	10.31	-1
44	17426	10.41	-1
44	17576	10.51	-1
44	17726	10.61	-1
44	17876	10.71	-1
44	18239	10.81	-1
44	18390	10.91	-1
44	18544	11.01	-1
44	18694	11.11	-1
44	18844	11.21	-1
44	18994	11.31	-1
44	19144	11.41	-1
44	19294	11.51	-1
44	19444	11.61	-1
44	19594	11.71	-1
44	19745	11.81	-1
44	20108	11.91	-1
44	20262	12.01	-1
44	20412	12.11	-1
44	20562	12.21	-1
44	20712	12.31	-1
44	20862	12.41	-1
44	21012	12.51	-1
44	21162	12.61	-1
44	21312	12.71	-1
44	21462	12.81	-1
44	21869	12.91	-1
44	22024	13.01	-1
44	22174	13.11	-1
44	22324	13.21	-1
44	22474	13.31	-1
44	22624	13.41	-1
44	22774	13.51	-1
44	22924	13.61	-1
44	23074	13.71	-1
44	23224	13.81	-1
44	23375	13.91	-1
44	23742	14.01	-1
44	23892	14.11	-1
44	24042	14.21	-1
44	24192	14.31	-1
44	24342	14.41	-1
44	24492	14.51	-1
44	24642	14.61	-1
44	24792	14.71	-1
44	24942	14.81	-1
44	25092	14.91	-1
44	25459	15.01	-1
44	25610	15.11	-1
44	25760	15.21	-1
44	25910	15.31	-1
44	26060	15.41	-1
44	26210	15.51	-1
44	26360	15.61	-1
44	26510	15.71	-1
44	26660	15.81	-1
44	26810	15.91	-1
44	26964	16.01	-1
44	27114	16.11	-1
44	27264	16.21	-1
44	27414	16.31	-1
44	27564	16.41	-1
44	27714	16.51	-1
44	27864	16.61	-1
44	28014	16.71	-1
44	28164	16.81	-1
44	28314	16.91	-1
44	28468	17.01	-1
44	28618	17.11	-1
44	28768	17.21	-1
44	28918	17.31	-1
44	29068	17.41	-1
44	29218	17.51	-1
44	29368	17.61	-1
44	29518	17.71	-1
44	29668	17.81	-1
44	29818	17.91	-1
44	29972	18.01	-1
44	30122	18.11	-1
44	30272	18.21	-1
44	30422	18.31	-1
44	30572	18.41	-1
44	30722	18.51	-1
44	30872	18.61	-1
44	31022	18.71	-1
44	31172	18.81	-1
44	31322	18.91	-1
44	31476	19.01	-1
44	31626	19.11	-1
44	31776	19.21	-1
44	31926	19.31	-1
44	32076	19.41	-1
44	32226	19.51	-1
44	32376	19.61	-1
44	32526	19.71	-1
44	32676	19.81	-1
44	32826	19.91	-1
44	32980	20.01	-1
44	33130	20.11	-1
44	33280	20.21	-1
44	33430	20.31	-1
44	33580	20.41	-1
44	33730	20.51	-1
44	33880	20.61	-1
44	34030	20.71	-1
44	34180	20.81	-1
44	34330	20.91	-1
44	34484	21.01	-1
44	34634	21.11	-1
44	34784	21.21	-1
44	34934	21.31	-1
44	35084	21.41	-1
44	35234	21.51	-1
44	35384	21.61	-1
44	35534	21.71	-1
44	35684	21.81	-1
44	35834	21.91	-1
44	35988	22.01	-1
44	36138	22.11	-1
44	36288	22.21	-1
44	36438	22.31	-1
44	36588	22.41	-1
44	36738	22.51	-1
44	36888	22.61	-1
44	37038	22.71	-1
44	37188	22.81	-1
44	37338	22.91	-1
44	37492	23.01	-1
44	37642	23.11	-1
44	37792	23.21	-1
44	37942	23.31	-1
44	38092	23.41	-1
44	38242	23.51	-1
44	38392	23.61	-1
44	38542	23.71	-1
44	38692	23.81	-1
44	38842	23.91	-1
44	38996	24.01	-1
44	39146	24.11	-1
44	39296	24.21	-1
44	39446	24.31	-1
44	39596	24.41	-1
44	39746	24.51	-1
44	39896	24.61	-1
44	40046	24.71	-1
44	40196	24.81	-1
44	40346	24.91	-1
44	40500	25.01	-1
44	40650	25.11	-1
44	40800	25.21	-1
44	40950	25.31	-1
44	41100	25.41	-1
44	41250	25.51	-1
44	41400	25.61	-1
44	41550	25.71	-1
44	41700	25.81	-1
44	41850	25.91	-1
44	42004	26.01	-1
44	42154	26.11	-1
44	42304	26.21	-1
44	42454	26.31	-1
44	42604	26.41	-1
44	42754	26.51	-1
44	42904	26.61	-1
44	43055	26.71	-1
44	43205	26.81	-1
44	43355	26.91	-1
44	43509	27.01	-1
44	43659	27.11	-1
44	43809	27.21	-1
44	43959	27.31	-1
44	44109	27.41	-1
44	44259	27.51	-1
44	44409	27.61	-1
44	44559	27.71	-1
44	44709	27.81	-1
44	44859	27.91	-1
44	45013	28.01	-1
44	45163	28.11	-1
44	45313	28.21	-1
44	45463	28.31	-1
44	45613	28.41	-1
44	45763	28.51	-1
44	45913	28.61	-1
44	46063	28.71	-1
44	46213	28.81	-1
44	46363	28.91	-1
44	46517	29.01	-1
44	46667	29.11	-1
44	46817	29.21	-1
44	46967	29.31	-1
44	47117	29.41	-1
44	47267	29.51	-1
44	47417	29.61	-1
44	47567	29.71	-1
44	47717	29.81	-1
44	47867	29.91	-1
44	48021	30.01	-1
44	48171	30.11	-1
44	48321	30.21	-1
44	48471	30.31	-1
44	48621	30.41	-1
44	48771	30.51	-1
44	48921	30.61	-1
44	49071	30.71	-1
44	49221	30.81	-1
44	49371	30.91	-1
44	49525	31.01	-1
44	49675	31.11	-1
44	49825	31.21	-1
44	49975	31.31	-1
44	50125	31.41	-1
44	50275	31.51	-1
44	50425	31.61	-1
44	50575	31.71	-1
44	50725	31.81	-1
44	50875	31.91	-1
44	51029	32.01	-1
44	51179	32.11	-1
44	51329	32.21	-1
44	51479	32.31	-1
44	51629	32.41	-1
44	51779	32.51	-1
44	51929	32.61	-1
44	52079	32.71	-1
44	52229	32.81	-1
44	52379	32.91	-1
44	52533	33.01	-1
44	52683	33.11	-1
46	26	0.21	3
46	176	0.31	3
46	326	0.41	3
46	476	0.51	3
46	626	0.61	3
46	776	0.71	3
46	926	0.81	3
46	1076	0.91	3
46	1230	1.01	3
46	1381	1.11	3
46	1532	1.21	3
46	1683	1.31	3
46	2046	1.41	3
46	2196	1.51	3
46	2346	1.61	3
46	2496	1.71	3
46	2646	1.81	3
46	2796	1.91	3
46	2950	2.01	3
46	3100	2.11	3
46	3250	2.21	3
46	3400	2.31	3
46	3763	2.41	3
46	3914	2.51	3
46	4064	2.61	3
46	4214	2.71	3
46	4364	2.81	3
46	4514	2.91	3
46	4668	3.01	3
46	4818	3.11	3
46	4968	3.21	3
46	5118	3.31	3
46	5269	3.41	3
46	5676	3.51	3
46	5826	3.61	3
46	5976	3.71	3
46	6126	3.81	3
46	6276	3.91	3
46	6430	4.01	3
46	6580	4.11	3
46	6730	4.21	3
46	6880	4.31	3
46	7030	4.41	3
46	7393	4.51	3
46	7544	4.61	3
46	7694	4.71	3
46	7844	4.81	3
46	7994	4.91	3
46	8148	5.01	3
46	8298	5.11	3
46	8448	5.21	3
46	8598	5.31	3
46	8748	5.41	3
46	8899	5.51	3
46	9262	5.61	3
46	9412	5.71	3
46	9562	5.81	3
46	9712	5.91	3
46	9866	6.01	3
46	10016	6.11	3
46	10166	6.21	3
46	10316	6.31	3
46	10466	6.41	3
46	10616	6.51	3
46	11023	6.61	3
46	11174	6.71	3
46	11324	6.81	3
46	11474	6.91	3
46	11628	7.01	3
46	11778	7.11	3
46	11928	7.21	3
46	12078	7.31	3
46	12228	7.41	3
46	12378	7.51	3
46	12529	7.61	3
46	12892	7.71	3
46	13042	7.81	3
46	13192	7.91	3
46	13346	8.01	3
46	13496	8.11	3
46	13646	8.21	3
46	13796	8.31	3
46	13946	8.41	3
46	14096	8.51	3
46	14246	8.61	3
46	14609	8.71	3
46	14760	8.81	3
46	14910	8.91	3
46	15064	9.01	3
46	15214	9.11	3
46	15364	9.21	3
46	15514	9.31	3
46	15664	9.41	3
46	15814	9.51	3
46	15964	9.61	3
46	16115	9.71	3
46	16522	9.81	3
46	16672	9.91	3
46	16826	10.01	3
46	16976	10.11	3
46	17126	10.21	3
46	17276	10.31	3
46	17426	10.41	3
46	17576	10.51	3
46	17726	10.61	3
46	17876	10.71	3
46	18239	10.81	3
46	18390	10.91	3
46	18544	11.01	3
46	18694	11.11	3
46	18844	11.21	3
46	18994	11.31	3
46	19144	11.41	3
46	19294	11.51	3
46	19444	11.61	3
46	19594	11.71	3
46	19745	11.81	3
46	20108	11.91	3
46	20262	12.01	3
46	20412	12.11	3
46	20562	12.21	3
46	20712	12.31	3
46	20862	12.41	3
46	21012	12.51	3
46	21162	12.61	3
46	21312	12.71	3
46	21462	12.81	3
46	21869	12.91	3
46	22024	13.01	3
46	22174	13.11	3
46	22324	13.21	3
46	22474	13.31	3
46	22624	13.41	3
46	22774	13.51	3
46	22924	13.61	3
46	23074	13.71	3
46	23224	13.81	3
46	23375	13.91	3
46	23742	14.01	3
46	23892	14.11	3
46	24042	14.21	3
46	24192	14.31	3
46	24342	14.41	3
46	24492	14.51	3
46	24642	14.61	3
46	24792	14.71	3
46	24942	14.81	3
46	25092	14.91	3
46	25459	15.01	3
46	25610	15.11	3
46	25760	15.21	3
46	25910	15.31	3
46	26060	15.41	3
46	26210	15.51	3
46	26360	15.61	3
46	26510	15.71	3
46	26660	15.81	3
46	26810	15.91	3
46	26964	16.01	3
46	27114	16.11	3
46	27264	16.21	3
46	27414	16.31	3
46	27564	16.41	3
46	27714	16.51	3
46	27864	16.61	3
46	28014	16.71	3
46	28164	16.81	3
46	28314	16.91	3
46	28468	17.01	3
46	28618	17.11	3
46	28768	17.21	3
46	28918	17.31	3
46	29068	17.41	3
46	29218	17.51	3
46	29368	17.61	3
46	29518	17.71	3
46	29668	17.81	3
46	29818	17.91	3
46	29972	18.01	3
46	30122	18.11	3
46	30272	18.21	3
46	30422	18.31	3
46	30572	18.41	3
46	30722	18.51	3
46	30872	18.61	3
46	31022	18.71	3
46	31172	18.81	3
46	31322	18.91	3
46	31476	19.01	3
46	31626	19.11	3
46	31776	19.21	3
46	31926	19.31	3
46	32076	19.41	3
46	32226	19.51	3
46	32376	19.61	3
46	32526	19.71	3
46	32676	19.81	3
46	32826	19.91	3
46	32980	20.01	3
46	33130	20.11	3
46	33280	20.21	3
46	33430	20.31	3
46	33580	20.41	3
46	33730	20.51	3
46	33880	20.61	3
46	34030	20.71	3
46	34180	20.81	3
46	34330	20.91	3
46	34484	21.01	3
46	34634	21.11	3
46	34784	21.21	3
46	34934	21.31	3
46	35084	21.41	3
46	35234	21.51	3
46	35384	21.61	3
46	35534	21.71	3
46	35684	21.81	3
46	35834	21.91	3
46	35988	22.01	3
46	36138	22.11	3
46	36288	22.21	3
46	36438	22.31	3
46	36588	22.41	3
46	36738	22.51	3
46	36888	22.61	3
46	37038	22.71	3
46	37188	22.81	3
46	37338	22.91	3
46	37492	23.01	3
46	37642	23.11	3
46	37792	23.21	3
46	37942	23.31	3
46	38092	23.41	3
46	38242	23.51	3
46	38392	23.61	3
46	38542	23.71	3
46	38692	23.81	3
46	38842	23.91	3
46	38996	24.01	3
46	39146	24.11	3
46	39296	24.21	3
46	39446	24.31	3
46	39596	24.41	3
46	39746	24.51	3
46	39896	24.61	3
46	40046	24.71	3
46	40196	24.81	3
46	40346	24.91	3
46	40500	25.01	3
46	40650	25.11	3
46	40800	25.21	3
46	40950	25.31	3
46	41100	25.41	3
46	41250	25.51	3
46	41400	25.61	3
46	41550	25.71	3
46	41700	25.81	3
46	41850	25.91	3
46	42004	26.01	3
46	42154	26.11	3
46	42304	26.21	3
46	42454	26.31	3
46	42604	26.41	3
46	42754	26.51	3
46	42904	26.61	3
46	43055	26.71	3
46	43205	26.81	3
46	43355	26.91	3
46	43509	27.01	3
46	43659	27.11	3
46	43809	27.21	3
46	43959	27.31	3
46	44109	27.41	3
46	44259	27.51	3
46	44409	27.61	3
46	44559	27.71	3
46	44709	27.81	3
46	44859	27.91	3
46	45013	28.01	3
46	45163	28.11	3
46	45313	28.21	3
46	45463	28.31	3
46	45613	28.41	3
46	45763	28.51	3
46	45913	28.61	3
46	46063	28.71	3
46	46213	28.81	3
46	46363	28.91	3
46	46517	29.01	3
46	46667	29.11	3
46	46817	29.21	3
46	46967	29.31	3
46	47117	29.41	3
46	47267	29.51	3
46	47417	29.61	3
46	47567	29.71	3
46	47717	29.81	3
46	47867	29.91	3
46	48021	30.01	3
46	48171	30.11	3
46	48321	30.21	3
46	48471	30.31	3
46	48621	30.41	3
46	48771	30.51	3
46	48921	30.61	3
46	49071	30.71	3
46	49221	30.81	3
46	49371	30.91	3
46	49525	31.01	3
46	49675	31.11	3
46	49825	31.21	3
46	49975	31.31	3
46	50125	31.41	3
46	50275	31.51	3
46	50425	31.61	3
46	50575	31.71	3
46	50725	31.81	3
46	50875	31.91	3
46	51029	32.01	3
46	51179	32.11	3
46	51329	32.21	3
46	51479	32.31	3
46	51629	32.41	3
46	51779	32.51	3
46	51929	32.61	3
46	52079	32.71	3
46	52229	32.81	3
46	52379	32.91	3
46	52533	33.01	3
46	52683	33.11	3
67	1191	1	0
67	2911	2	0
67	4629	3	0
67	6391	4	0
67	8109	5	0
67	9827	6	0
67	11589	7	0
67	13307	8	0
67	15025	9	0
67	16787	10	0
67	18505	11	0
67	20223	12	0
67	21985	13	0
67	23703	14	0
67	25420	15	0
67	26925	16	0
67	28429	17	0
67	29933	18	0
67	31437	19	0
67	32941	20	0
67	34445	21	0
67	35949	22	0
67	37453	23	0
67	38957	24	0
67	40461	25	0
67	41965	26	0
67	43470	27	0
67	44974	28	0
67	46478	29	0
67	47982	30	0
67	49486	31	0
67	50990	32	0
67	52494	33	0
66	1191	1	0.009679
66	2911	2	0.013005648968
66	4629	3	0.013005398006
66	6391	4	0.013053164194
66	8109	5	0.013004935596
66	9827	6	0.013004708828
66	11589	7	0.013147483848
66	13307	8	0.013004260936
66	15025	9	0.013004040084
66	16787	10	0.013146821116
66	18505	11	0.01300360385
66	20223	12	0.013003388182
66	21985	13	0.013146174364
66	23703	14	0.01300304559
66	25420	15	0.013003253432
66	26925	16	0.01249
66	28429	17	0.01249
66	29933	18	0.01249
66	31437	19	0.01249
66	32941	20	0.01249
66	34445	21	0.01249
66	35949	22	0.01249
66	37453	23	0.01249
66	38957	24	0.01249
66	40461	25	0.01249
66	41965	26	0.01249
66	43470	27	0.01249
66	44974	28	0.01249
66	46478	29	0.01249
66	47982	30	0.01249
66	49486	31	0.01249
66	50990	32	0.01249
66	52494	33	0.01249
65	1191	1	3
65	2911	2	3
65	4629	3	3
65	6391	4	3
65	8109	5	3
65	9827	6	3
65	11589	7	3
65	13307	8	3
65	15025	9	3
65	16787	10	3
65	18505	11	3
65	20223	12	3
65	21985	13	3
65	23703	14	3
65	25420	15	3
65	26925	16	3
65	28429	17	3
65	29933	18	3
65	31437	19	3
65	32941	20	3
65	34445	21	3
65	35949	22	3
65	37453	23	3
65	38957	24	3
65	40461	25	3
65	41965	26	3
65	43470	27	3
65	44974	28	3
65	46478	29	3
65	47982	30	3
65	49486	31	3
65	50990	32	3
65	52494	33	3
19	15	0.13	2.14537872
19	16	0.14	2.14537872
19	17	0.15	2.14537872
19	18	0.16	2.14537872
19	19	0.17	2.14537872
19	20	0.18	2.14537872
19	21	0.19	2.14537872
19	22	0.2	2.14537872
19	27	0.21	2.14537872
19	62	0.22	2.14537872
19	97	0.23	2.14537872
19	98	0.24	2.14537872
19	99	0.25	2.14537872
19	134	0.26	2.14537872
19	135	0.27	2.14537872
19	136	0.28	2.14537872
19	137	0.29	2.14537872
19	138	0.3	2.14537872
19	177	0.31	2.14537872
19	212	0.32	2.14537872
19	247	0.33	2.14537872
19	248	0.34	2.14537872
19	249	0.35	2.14537872
19	284	0.36	2.14537872
19	285	0.37	2.14537872
19	286	0.38	2.14537872
19	287	0.39	2.14537872
19	288	0.4	2.14537872
19	327	0.41	2.14537872
19	362	0.42	2.14537872
19	397	0.43	2.14537872
19	398	0.44	2.14537872
19	399	0.45	2.14537872
19	434	0.46	2.14537872
19	435	0.47	2.14537872
19	436	0.48	2.14537872
19	437	0.49	2.14537872
19	438	0.5	2.14537872
19	477	0.51	2.14537872
19	512	0.52	2.14537872
19	547	0.53	2.14537872
19	548	0.54	2.14537872
19	549	0.55	2.14537872
19	584	0.56	2.14537872
19	585	0.57	2.14537872
19	586	0.58	2.14537872
19	587	0.59	2.14537872
19	588	0.6	2.14537872
19	627	0.61	2.14537872
19	662	0.62	2.14537872
19	697	0.63	2.14537872
19	698	0.64	2.14537872
19	699	0.65	2.14537872
19	734	0.66	2.14537872
19	735	0.67	2.14537872
19	736	0.68	2.14537872
19	737	0.69	2.14537872
19	738	0.7	2.14537872
19	777	0.71	2.14537872
19	812	0.72	2.14537872
19	847	0.73	2.14537872
19	848	0.74	2.14537872
19	849	0.75	2.14537872
19	884	0.76	2.14537872
19	885	0.77	2.14537872
19	886	0.78	2.14537872
19	887	0.79	2.14537872
19	888	0.8	2.14537872
19	927	0.81	2.14537872
19	962	0.82	2.14537872
19	997	0.83	2.14537872
19	998	0.84	2.14537872
19	999	0.85	2.14537872
19	1034	0.86	2.14537872
19	1035	0.87	2.14537872
19	1036	0.88	2.14537872
19	1037	0.89	2.14537872
19	1038	0.9	2.14537872
19	1077	0.91	2.14537872
19	1112	0.92	2.14537872
19	1147	0.93	2.14537872
19	1148	0.94	2.14537872
19	1149	0.95	2.14537872
19	1184	0.96	2.14537872
19	1185	0.97	2.14537872
19	1186	0.98	2.14537872
19	1187	0.99	2.14537872
19	1192	1	2.14537872
19	1231	1.01	2.14537872
19	1266	1.02	2.14537872
19	1301	1.03	2.14537872
19	1302	1.04	2.14537872
19	1303	1.05	2.14537872
19	1338	1.06	2.14537872
19	1339	1.07	2.14537872
19	1340	1.08	2.14537872
19	1341	1.09	2.14537872
19	1342	1.1	2.14537872
19	1382	1.11	2.14537872
19	1417	1.12	2.14537872
19	1452	1.13	2.14537872
19	1453	1.14	2.14537872
19	1454	1.15	2.14537872
19	1489	1.16	2.14537872
19	1490	1.17	2.14537872
19	1491	1.18	2.14537872
19	1492	1.19	2.14537872
19	1493	1.2	2.14537872
19	1533	1.21	2.14537872
19	1568	1.22	2.14537872
19	1603	1.23	2.14537872
19	1604	1.24	2.14537872
19	1605	1.25	2.14537872
19	1640	1.26	2.14537872
19	1641	1.27	2.14537872
19	1642	1.28	2.14537872
19	1643	1.29	2.14537872
19	1644	1.3	2.14537872
19	1684	1.31	2.14537872
19	1931	1.32	2.14537872
19	1966	1.33	2.14537872
19	1967	1.34	2.14537872
19	1968	1.35	2.14537872
19	2004	1.36	2.14537872
19	2005	1.37	2.14537872
19	2006	1.38	2.14537872
19	2007	1.39	2.14537872
19	2008	1.4	2.14537872
19	2047	1.41	2.14537872
19	2082	1.42	2.14537872
19	2117	1.43	2.14537872
19	2118	1.44	2.14537872
19	2119	1.45	2.14537872
19	2154	1.46	2.14537872
19	2155	1.47	2.14537872
19	2156	1.48	2.14537872
19	2157	1.49	2.14537872
19	2158	1.5	2.14537872
19	2197	1.51	2.14537872
19	2232	1.52	2.14537872
19	2267	1.53	2.14537872
19	2268	1.54	2.14537872
19	2269	1.55	2.14537872
19	2304	1.56	2.14537872
19	2305	1.57	2.14537872
19	2306	1.58	2.14537872
19	2307	1.59	2.14537872
19	2308	1.6	2.14537872
19	2347	1.61	2.14537872
19	2382	1.62	2.14537872
19	2417	1.63	2.14537872
19	2418	1.64	2.14537872
19	2419	1.65	2.14537872
19	2454	1.66	2.14537872
19	2455	1.67	2.14537872
19	2456	1.68	2.14537872
19	2457	1.69	2.14537872
19	2458	1.7	2.14537872
19	2497	1.71	2.14537872
19	2532	1.72	2.14537872
19	2567	1.73	2.14537872
19	2568	1.74	2.14537872
19	2569	1.75	2.14537872
19	2604	1.76	2.14537872
19	2605	1.77	2.14537872
19	2606	1.78	2.14537872
19	2607	1.79	2.14537872
19	2608	1.8	2.14537872
19	2647	1.81	2.14537872
19	2682	1.82	2.14537872
19	2717	1.83	2.14537872
19	2718	1.84	2.14537872
19	2719	1.85	2.14537872
19	2754	1.86	2.14537872
19	2755	1.87	2.14537872
19	2756	1.88	2.14537872
19	2757	1.89	2.14537872
19	2758	1.9	2.14537872
19	2797	1.91	2.14537872
19	2832	1.92	2.14537872
19	2867	1.93	2.14537872
19	2868	1.94	2.14537872
19	2869	1.95	2.14537872
19	2904	1.96	2.14537872
19	2905	1.97	2.14537872
19	2906	1.98	2.14537872
19	2907	1.99	2.14537872
19	2912	2	2.14537872
19	2951	2.01	2.14537872
19	2986	2.02	2.14537872
19	3021	2.03	2.14537872
19	3022	2.04	2.14537872
19	3023	2.05	2.14537872
19	3058	2.06	2.14537872
19	3059	2.07	2.14537872
19	3060	2.08	2.14537872
19	3061	2.09	2.14537872
19	3062	2.1	2.14537872
19	3101	2.11	2.14537872
19	3136	2.12	2.14537872
19	3171	2.13	2.14537872
19	3172	2.14	2.14537872
19	3173	2.15	2.14537872
19	3208	2.16	2.14537872
19	3209	2.17	2.14537872
19	3210	2.18	2.14537872
19	3211	2.19	2.14537872
19	3212	2.2	2.14537872
19	3251	2.21	2.14537872
19	3286	2.22	2.14537872
19	3321	2.23	2.14537872
19	3322	2.24	2.14537872
19	3323	2.25	2.14537872
19	3358	2.26	2.14537872
19	3359	2.27	2.14537872
19	3360	2.28	2.14537872
19	3361	2.29	2.14537872
19	3362	2.3	2.14537872
19	3401	2.31	2.14537872
19	3436	2.32	2.14537872
19	3471	2.33	2.14537872
19	3472	2.34	2.14537872
19	3473	2.35	2.14537872
19	3509	2.36	2.14537872
19	3722	2.37	2.14537872
19	3723	2.38	2.14537872
19	3724	2.39	2.14537872
19	3725	2.4	2.14537872
19	3765	2.41	2.14537872
19	3800	2.42	2.14537872
19	3835	2.43	2.14537872
19	3836	2.44	2.14537872
19	3837	2.45	2.14537872
19	3872	2.46	2.14537872
19	3873	2.47	2.14537872
19	3874	2.48	2.14537872
19	3875	2.49	2.14537872
19	3876	2.5	2.14537872
19	3915	2.51	2.14537872
19	3950	2.52	2.14537872
19	3985	2.53	2.14537872
19	3986	2.54	2.14537872
19	3987	2.55	2.14537872
19	4022	2.56	2.14537872
19	4023	2.57	2.14537872
19	4024	2.58	2.14537872
19	4025	2.59	2.14537872
19	4026	2.6	2.14537872
19	4065	2.61	2.14537872
19	4100	2.62	2.14537872
19	4135	2.63	2.14537872
19	4136	2.64	2.14537872
19	4137	2.65	2.14537872
19	4172	2.66	2.14537872
19	4173	2.67	2.14537872
19	4174	2.68	2.14537872
19	4175	2.69	2.14537872
19	4176	2.7	2.14537872
19	4215	2.71	2.14537872
19	4250	2.72	2.14537872
19	4285	2.73	2.14537872
19	4286	2.74	2.14537872
19	4287	2.75	2.14537872
19	4322	2.76	2.14537872
19	4323	2.77	2.14537872
19	4324	2.78	2.14537872
19	4325	2.79	2.14537872
19	4326	2.8	2.14537872
19	4365	2.81	2.14537872
19	4400	2.82	2.14537872
19	4435	2.83	2.14537872
19	4436	2.84	2.14537872
19	4437	2.85	2.14537872
19	4472	2.86	2.14537872
19	4473	2.87	2.14537872
19	4474	2.88	2.14537872
19	4475	2.89	2.14537872
19	4476	2.9	2.14537872
19	4515	2.91	2.14537872
19	4550	2.92	2.14537872
19	4585	2.93	2.14537872
19	4586	2.94	2.14537872
19	4587	2.95	2.14537872
19	4622	2.96	2.14537872
19	4623	2.97	2.14537872
19	4624	2.98	2.14537872
19	4625	2.99	2.14537872
19	4630	3	2.14537872
19	4669	3.01	2.14537872
19	4704	3.02	2.14537872
19	4739	3.03	2.14537872
19	4740	3.04	2.14537872
19	4741	3.05	2.14537872
19	4776	3.06	2.14537872
19	4777	3.07	2.14537872
19	4778	3.08	2.14537872
19	4779	3.09	2.14537872
19	4780	3.1	2.14537872
19	4819	3.11	2.14537872
19	4854	3.12	2.14537872
19	4889	3.13	2.14537872
19	4890	3.14	2.14537872
19	4891	3.15	2.14537872
19	4926	3.16	2.14537872
19	4927	3.17	2.14537872
19	4928	3.18	2.14537872
19	4929	3.19	2.14537872
19	4930	3.2	2.14537872
19	4969	3.21	2.14537872
19	5004	3.22	2.14537872
19	5039	3.23	2.14537872
19	5040	3.24	2.14537872
19	5041	3.25	2.14537872
19	5076	3.26	2.14537872
19	5077	3.27	2.14537872
19	5078	3.28	2.14537872
19	5079	3.29	2.14537872
19	5080	3.3	2.14537872
19	5119	3.31	2.14537872
19	5154	3.32	2.14537872
19	5189	3.33	2.14537872
19	5190	3.34	2.14537872
19	5191	3.35	2.14537872
19	5226	3.36	2.14537872
19	5227	3.37	2.14537872
19	5228	3.38	2.14537872
19	5229	3.39	2.14537872
19	5230	3.4	2.14537872
19	5270	3.41	2.14537872
19	5561	3.42	2.14537872
19	5596	3.43	2.14537872
19	5597	3.44	2.14537872
19	5598	3.45	2.14537872
19	5634	3.46	2.14537872
19	5635	3.47	2.14537872
19	5636	3.48	2.14537872
19	5637	3.49	2.14537872
19	5638	3.5	2.14537872
19	5677	3.51	2.14537872
19	5712	3.52	2.14537872
19	5747	3.53	2.14537872
19	5748	3.54	2.14537872
19	5749	3.55	2.14537872
19	5784	3.56	2.14537872
19	5785	3.57	2.14537872
19	5786	3.58	2.14537872
19	5787	3.59	2.14537872
19	5788	3.6	2.14537872
19	5827	3.61	2.14537872
19	5862	3.62	2.14537872
19	5897	3.63	2.14537872
19	5898	3.64	2.14537872
19	5899	3.65	2.14537872
19	5934	3.66	2.14537872
19	5935	3.67	2.14537872
19	5936	3.68	2.14537872
19	5937	3.69	2.14537872
19	5938	3.7	2.14537872
19	5977	3.71	2.14537872
19	6012	3.72	2.14537872
19	6047	3.73	2.14537872
19	6048	3.74	2.14537872
19	6049	3.75	2.14537872
19	6084	3.76	2.14537872
19	6085	3.77	2.14537872
19	6086	3.78	2.14537872
19	6087	3.79	2.14537872
19	6088	3.8	2.14537872
19	6127	3.81	2.14537872
19	6162	3.82	2.14537872
19	6197	3.83	2.14537872
19	6198	3.84	2.14537872
19	6199	3.85	2.14537872
19	6234	3.86	2.14537872
19	6235	3.87	2.14537872
19	6236	3.88	2.14537872
19	6237	3.89	2.14537872
19	6238	3.9	2.14537872
19	6277	3.91	2.14537872
19	6312	3.92	2.14537872
19	6347	3.93	2.14537872
19	6348	3.94	2.14537872
19	6349	3.95	2.14537872
19	6384	3.96	2.14537872
19	6385	3.97	2.14537872
19	6386	3.98	2.14537872
19	6387	3.99	2.14537872
19	6392	4	2.14537872
19	6431	4.01	2.14537872
19	6466	4.02	2.14537872
19	6501	4.03	2.14537872
19	6502	4.04	2.14537872
19	6503	4.05	2.14537872
19	6538	4.06	2.14537872
19	6539	4.07	2.14537872
19	6540	4.08	2.14537872
19	6541	4.09	2.14537872
19	6542	4.1	2.14537872
19	6581	4.11	2.14537872
19	6616	4.12	2.14537872
19	6651	4.13	2.14537872
19	6652	4.14	2.14537872
19	6653	4.15	2.14537872
19	6688	4.16	2.14537872
19	6689	4.17	2.14537872
19	6690	4.18	2.14537872
19	6691	4.19	2.14537872
19	6692	4.2	2.14537872
19	6731	4.21	2.14537872
19	6766	4.22	2.14537872
19	6801	4.23	2.14537872
19	6802	4.24	2.14537872
19	6803	4.25	2.14537872
19	6838	4.26	2.14537872
19	6839	4.27	2.14537872
19	6840	4.28	2.14537872
19	6841	4.29	2.14537872
19	6842	4.3	2.14537872
19	6881	4.31	2.14537872
19	6916	4.32	2.14537872
19	6951	4.33	2.14537872
19	6952	4.34	2.14537872
19	6953	4.35	2.14537872
19	6988	4.36	2.14537872
19	6989	4.37	2.14537872
19	6990	4.38	2.14537872
19	6991	4.39	2.14537872
19	6992	4.4	2.14537872
19	7031	4.41	2.14537872
19	7066	4.42	2.14537872
19	7101	4.43	2.14537872
19	7102	4.44	2.14537872
19	7103	4.45	2.14537872
19	7139	4.46	2.14537872
19	7352	4.47	2.14537872
19	7353	4.48	2.14537872
19	7354	4.49	2.14537872
19	7355	4.5	2.14537872
19	7395	4.51	2.14537872
19	7430	4.52	2.14537872
19	7465	4.53	2.14537872
19	7466	4.54	2.14537872
19	7467	4.55	2.14537872
19	7502	4.56	2.14537872
19	7503	4.57	2.14537872
19	7504	4.58	2.14537872
19	7505	4.59	2.14537872
19	7506	4.6	2.14537872
19	7545	4.61	2.14537872
19	7580	4.62	2.14537872
19	7615	4.63	2.14537872
19	7616	4.64	2.14537872
19	7617	4.65	2.14537872
19	7652	4.66	2.14537872
19	7653	4.67	2.14537872
19	7654	4.68	2.14537872
19	7655	4.69	2.14537872
19	7656	4.7	2.14537872
19	7695	4.71	2.14537872
19	7730	4.72	2.14537872
19	7765	4.73	2.14537872
19	7766	4.74	2.14537872
19	7767	4.75	2.14537872
19	7802	4.76	2.14537872
19	7803	4.77	2.14537872
19	7804	4.78	2.14537872
19	7805	4.79	2.14537872
19	7806	4.8	2.14537872
19	7845	4.81	2.14537872
19	7880	4.82	2.14537872
19	7915	4.83	2.14537872
19	7916	4.84	2.14537872
19	7917	4.85	2.14537872
19	7952	4.86	2.14537872
19	7953	4.87	2.14537872
19	7954	4.88	2.14537872
19	7955	4.89	2.14537872
19	7956	4.9	2.14537872
19	7995	4.91	2.14537872
19	8030	4.92	2.14537872
19	8065	4.93	2.14537872
19	8066	4.94	2.14537872
19	8067	4.95	2.14537872
19	8102	4.96	2.14537872
19	8103	4.97	2.14537872
19	8104	4.98	2.14537872
19	8105	4.99	2.14537872
19	8110	5	2.14537872
19	8149	5.01	2.14537872
19	8184	5.02	2.14537872
19	8219	5.03	2.14537872
19	8220	5.04	2.14537872
19	8221	5.05	2.14537872
19	8256	5.06	2.14537872
19	8257	5.07	2.14537872
19	8258	5.08	2.14537872
19	8259	5.09	2.14537872
19	8260	5.1	2.14537872
19	8299	5.11	2.14537872
19	8334	5.12	2.14537872
19	8369	5.13	2.14537872
19	8370	5.14	2.14537872
19	8371	5.15	2.14537872
19	8406	5.16	2.14537872
19	8407	5.17	2.14537872
19	8408	5.18	2.14537872
19	8409	5.19	2.14537872
19	8410	5.2	2.14537872
19	8449	5.21	2.14537872
19	8484	5.22	2.14537872
19	8519	5.23	2.14537872
19	8520	5.24	2.14537872
19	8521	5.25	2.14537872
19	8556	5.26	2.14537872
19	8557	5.27	2.14537872
19	8558	5.28	2.14537872
19	8559	5.29	2.14537872
19	8560	5.3	2.14537872
19	8599	5.31	2.14537872
19	8634	5.32	2.14537872
19	8669	5.33	2.14537872
19	8670	5.34	2.14537872
19	8671	5.35	2.14537872
19	8706	5.36	2.14537872
19	8707	5.37	2.14537872
19	8708	5.38	2.14537872
19	8709	5.39	2.14537872
19	8710	5.4	2.14537872
19	8749	5.41	2.14537872
19	8784	5.42	2.14537872
19	8819	5.43	2.14537872
19	8820	5.44	2.14537872
19	8821	5.45	2.14537872
19	8856	5.46	2.14537872
19	8857	5.47	2.14537872
19	8858	5.48	2.14537872
19	8859	5.49	2.14537872
19	8860	5.5	2.14537872
19	8900	5.51	2.14537872
19	9147	5.52	2.14537872
19	9182	5.53	2.14537872
19	9183	5.54	2.14537872
19	9184	5.55	2.14537872
19	9220	5.56	2.14537872
19	9221	5.57	2.14537872
19	9222	5.58	2.14537872
19	9223	5.59	2.14537872
19	9224	5.6	2.14537872
19	9263	5.61	2.14537872
19	9298	5.62	2.14537872
19	9333	5.63	2.14537872
19	9334	5.64	2.14537872
19	9335	5.65	2.14537872
19	9370	5.66	2.14537872
19	9371	5.67	2.14537872
19	9372	5.68	2.14537872
19	9373	5.69	2.14537872
19	9374	5.7	2.14537872
19	9413	5.71	2.14537872
19	9448	5.72	2.14537872
19	9483	5.73	2.14537872
19	9484	5.74	2.14537872
19	9485	5.75	2.14537872
19	9520	5.76	2.14537872
19	9521	5.77	2.14537872
19	9522	5.78	2.14537872
19	9523	5.79	2.14537872
19	9524	5.8	2.14537872
19	9563	5.81	2.14537872
19	9598	5.82	2.14537872
19	9633	5.83	2.14537872
19	9634	5.84	2.14537872
19	9635	5.85	2.14537872
19	9670	5.86	2.14537872
19	9671	5.87	2.14537872
19	9672	5.88	2.14537872
19	9673	5.89	2.14537872
19	9674	5.9	2.14537872
19	9713	5.91	2.14537872
19	9748	5.92	2.14537872
19	9783	5.93	2.14537872
19	9784	5.94	2.14537872
19	9785	5.95	2.14537872
19	9820	5.96	2.14537872
19	9821	5.97	2.14537872
19	9822	5.98	2.14537872
19	9823	5.99	2.14537872
19	9828	6	2.14537872
19	9867	6.01	2.14537872
19	9902	6.02	2.14537872
19	9937	6.03	2.14537872
19	9938	6.04	2.14537872
19	9939	6.05	2.14537872
19	9974	6.06	2.14537872
19	9975	6.07	2.14537872
19	9976	6.08	2.14537872
19	9977	6.09	2.14537872
19	9978	6.1	2.14537872
19	10017	6.11	2.14537872
19	10052	6.12	2.14537872
19	10087	6.13	2.14537872
19	10088	6.14	2.14537872
19	10089	6.15	2.14537872
19	10124	6.16	2.14537872
19	10125	6.17	2.14537872
19	10126	6.18	2.14537872
19	10127	6.19	2.14537872
19	10128	6.2	2.14537872
19	10167	6.21	2.14537872
19	10202	6.22	2.14537872
19	10237	6.23	2.14537872
19	10238	6.24	2.14537872
19	10239	6.25	2.14537872
19	10274	6.26	2.14537872
19	10275	6.27	2.14537872
19	10276	6.28	2.14537872
19	10277	6.29	2.14537872
19	10278	6.3	2.14537872
19	10317	6.31	2.14537872
19	10352	6.32	2.14537872
19	10387	6.33	2.14537872
19	10388	6.34	2.14537872
19	10389	6.35	2.14537872
19	10424	6.36	2.14537872
19	10425	6.37	2.14537872
19	10426	6.38	2.14537872
19	10427	6.39	2.14537872
19	10428	6.4	2.14537872
19	10467	6.41	2.14537872
19	10502	6.42	2.14537872
19	10537	6.43	2.14537872
19	10538	6.44	2.14537872
19	10539	6.45	2.14537872
19	10574	6.46	2.14537872
19	10575	6.47	2.14537872
19	10576	6.48	2.14537872
19	10577	6.49	2.14537872
19	10578	6.5	2.14537872
19	10617	6.51	2.14537872
19	10652	6.52	2.14537872
19	10687	6.53	2.14537872
19	10688	6.54	2.14537872
19	10689	6.55	2.14537872
19	10725	6.56	2.14537872
19	10982	6.57	2.14537872
19	10983	6.58	2.14537872
19	10984	6.59	2.14537872
19	10985	6.6	2.14537872
19	11025	6.61	2.14537872
19	11060	6.62	2.14537872
19	11095	6.63	2.14537872
19	11096	6.64	2.14537872
19	11097	6.65	2.14537872
19	11132	6.66	2.14537872
19	11133	6.67	2.14537872
19	11134	6.68	2.14537872
19	11135	6.69	2.14537872
19	11136	6.7	2.14537872
19	11175	6.71	2.14537872
19	11210	6.72	2.14537872
19	11245	6.73	2.14537872
19	11246	6.74	2.14537872
19	11247	6.75	2.14537872
19	11282	6.76	2.14537872
19	11283	6.77	2.14537872
19	11284	6.78	2.14537872
19	11285	6.79	2.14537872
19	11286	6.8	2.14537872
19	11325	6.81	2.14537872
19	11360	6.82	2.14537872
19	11395	6.83	2.14537872
19	11396	6.84	2.14537872
19	11397	6.85	2.14537872
19	11432	6.86	2.14537872
19	11433	6.87	2.14537872
19	11434	6.88	2.14537872
19	11435	6.89	2.14537872
19	11436	6.9	2.14537872
19	11475	6.91	2.14537872
19	11510	6.92	2.14537872
19	11545	6.93	2.14537872
19	11546	6.94	2.14537872
19	11547	6.95	2.14537872
19	11582	6.96	2.14537872
19	11583	6.97	2.14537872
19	11584	6.98	2.14537872
19	11585	6.99	2.14537872
19	11590	7	2.14537872
19	11629	7.01	2.14537872
19	11664	7.02	2.14537872
19	11699	7.03	2.14537872
19	11700	7.04	2.14537872
19	11701	7.05	2.14537872
19	11736	7.06	2.14537872
19	11737	7.07	2.14537872
19	11738	7.08	2.14537872
19	11739	7.09	2.14537872
19	11740	7.1	2.14537872
19	11779	7.11	2.14537872
19	11814	7.12	2.14537872
19	11849	7.13	2.14537872
19	11850	7.14	2.14537872
19	11851	7.15	2.14537872
19	11886	7.16	2.14537872
19	11887	7.17	2.14537872
19	11888	7.18	2.14537872
19	11889	7.19	2.14537872
19	11890	7.2	2.14537872
19	11929	7.21	2.14537872
19	11964	7.22	2.14537872
19	11999	7.23	2.14537872
19	12000	7.24	2.14537872
19	12001	7.25	2.14537872
19	12036	7.26	2.14537872
19	12037	7.27	2.14537872
19	12038	7.28	2.14537872
19	12039	7.29	2.14537872
19	12040	7.3	2.14537872
19	12079	7.31	2.14537872
19	12114	7.32	2.14537872
19	12149	7.33	2.14537872
19	12150	7.34	2.14537872
19	12151	7.35	2.14537872
19	12186	7.36	2.14537872
19	12187	7.37	2.14537872
19	12188	7.38	2.14537872
19	12189	7.39	2.14537872
19	12190	7.4	2.14537872
19	12229	7.41	2.14537872
19	12264	7.42	2.14537872
19	12299	7.43	2.14537872
19	12300	7.44	2.14537872
19	12301	7.45	2.14537872
19	12336	7.46	2.14537872
19	12337	7.47	2.14537872
19	12338	7.48	2.14537872
19	12339	7.49	2.14537872
19	12340	7.5	2.14537872
19	12379	7.51	2.14537872
19	12414	7.52	2.14537872
19	12449	7.53	2.14537872
19	12450	7.54	2.14537872
19	12451	7.55	2.14537872
19	12486	7.56	2.14537872
19	12487	7.57	2.14537872
19	12488	7.58	2.14537872
19	12489	7.59	2.14537872
19	12490	7.6	2.14537872
19	12530	7.61	2.14537872
19	12777	7.62	2.14537872
19	12812	7.63	2.14537872
19	12813	7.64	2.14537872
19	12814	7.65	2.14537872
19	12850	7.66	2.14537872
19	12851	7.67	2.14537872
19	12852	7.68	2.14537872
19	12853	7.69	2.14537872
19	12854	7.7	2.14537872
19	12893	7.71	2.14537872
19	12928	7.72	2.14537872
19	12963	7.73	2.14537872
19	12964	7.74	2.14537872
19	12965	7.75	2.14537872
19	13000	7.76	2.14537872
19	13001	7.77	2.14537872
19	13002	7.78	2.14537872
19	13003	7.79	2.14537872
19	13004	7.8	2.14537872
19	13043	7.81	2.14537872
19	13078	7.82	2.14537872
19	13113	7.83	2.14537872
19	13114	7.84	2.14537872
19	13115	7.85	2.14537872
19	13150	7.86	2.14537872
19	13151	7.87	2.14537872
19	13152	7.88	2.14537872
19	13153	7.89	2.14537872
19	13154	7.9	2.14537872
19	13193	7.91	2.14537872
19	13228	7.92	2.14537872
19	13263	7.93	2.14537872
19	13264	7.94	2.14537872
19	13265	7.95	2.14537872
19	13300	7.96	2.14537872
19	13301	7.97	2.14537872
19	13302	7.98	2.14537872
19	13303	7.99	2.14537872
19	13308	8	2.14537872
19	13347	8.01	2.14537872
19	13382	8.02	2.14537872
19	13417	8.03	2.14537872
19	13418	8.04	2.14537872
19	13419	8.05	2.14537872
19	13454	8.06	2.14537872
19	13455	8.07	2.14537872
19	13456	8.08	2.14537872
19	13457	8.09	2.14537872
19	13458	8.1	2.14537872
19	13497	8.11	2.14537872
19	13532	8.12	2.14537872
19	13567	8.13	2.14537872
19	13568	8.14	2.14537872
19	13569	8.15	2.14537872
19	13604	8.16	2.14537872
19	13605	8.17	2.14537872
19	13606	8.18	2.14537872
19	13607	8.19	2.14537872
19	13608	8.2	2.14537872
19	13647	8.21	2.14537872
19	13682	8.22	2.14537872
19	13717	8.23	2.14537872
19	13718	8.24	2.14537872
19	13719	8.25	2.14537872
19	13754	8.26	2.14537872
19	13755	8.27	2.14537872
19	13756	8.28	2.14537872
19	13757	8.29	2.14537872
19	13758	8.3	2.14537872
19	13797	8.31	2.14537872
19	13832	8.32	2.14537872
19	13867	8.33	2.14537872
19	13868	8.34	2.14537872
19	13869	8.35	2.14537872
19	13904	8.36	2.14537872
19	13905	8.37	2.14537872
19	13906	8.38	2.14537872
19	13907	8.39	2.14537872
19	13908	8.4	2.14537872
19	13947	8.41	2.14537872
19	13982	8.42	2.14537872
19	14017	8.43	2.14537872
19	14018	8.44	2.14537872
19	14019	8.45	2.14537872
19	14054	8.46	2.14537872
19	14055	8.47	2.14537872
19	14056	8.48	2.14537872
19	14057	8.49	2.14537872
19	14058	8.5	2.14537872
19	14097	8.51	2.14537872
19	14132	8.52	2.14537872
19	14167	8.53	2.14537872
19	14168	8.54	2.14537872
19	14169	8.55	2.14537872
19	14204	8.56	2.14537872
19	14205	8.57	2.14537872
19	14206	8.58	2.14537872
19	14207	8.59	2.14537872
19	14208	8.6	2.14537872
19	14247	8.61	2.14537872
19	14282	8.62	2.14537872
19	14317	8.63	2.14537872
19	14318	8.64	2.14537872
19	14319	8.65	2.14537872
19	14355	8.66	2.14537872
19	14568	8.67	2.14537872
19	14569	8.68	2.14537872
19	14570	8.69	2.14537872
19	14571	8.7	2.14537872
19	14611	8.71	2.14537872
19	14646	8.72	2.14537872
19	14681	8.73	2.14537872
19	14682	8.74	2.14537872
19	14683	8.75	2.14537872
19	14718	8.76	2.14537872
19	14719	8.77	2.14537872
19	14720	8.78	2.14537872
19	14721	8.79	2.14537872
19	14722	8.8	2.14537872
19	14761	8.81	2.14537872
19	14796	8.82	2.14537872
19	14831	8.83	2.14537872
19	14832	8.84	2.14537872
19	14833	8.85	2.14537872
19	14868	8.86	2.14537872
19	14869	8.87	2.14537872
19	14870	8.88	2.14537872
19	14871	8.89	2.14537872
19	14872	8.9	2.14537872
19	14911	8.91	2.14537872
19	14946	8.92	2.14537872
19	14981	8.93	2.14537872
19	14982	8.94	2.14537872
19	14983	8.95	2.14537872
19	15018	8.96	2.14537872
19	15019	8.97	2.14537872
19	15020	8.98	2.14537872
19	15021	8.99	2.14537872
19	15026	9	2.14537872
19	15065	9.01	2.14537872
19	15100	9.02	2.14537872
19	15135	9.03	2.14537872
19	15136	9.04	2.14537872
19	15137	9.05	2.14537872
19	15172	9.06	2.14537872
19	15173	9.07	2.14537872
19	15174	9.08	2.14537872
19	15175	9.09	2.14537872
19	15176	9.1	2.14537872
19	15215	9.11	2.14537872
19	15250	9.12	2.14537872
19	15285	9.13	2.14537872
19	15286	9.14	2.14537872
19	15287	9.15	2.14537872
19	15322	9.16	2.14537872
19	15323	9.17	2.14537872
19	15324	9.18	2.14537872
19	15325	9.19	2.14537872
19	15326	9.2	2.14537872
19	15365	9.21	2.14537872
19	15400	9.22	2.14537872
19	15435	9.23	2.14537872
19	15436	9.24	2.14537872
19	15437	9.25	2.14537872
19	15472	9.26	2.14537872
19	15473	9.27	2.14537872
19	15474	9.28	2.14537872
19	15475	9.29	2.14537872
19	15476	9.3	2.14537872
19	15515	9.31	2.14537872
19	15550	9.32	2.14537872
19	15585	9.33	2.14537872
19	15586	9.34	2.14537872
19	15587	9.35	2.14537872
19	15622	9.36	2.14537872
19	15623	9.37	2.14537872
19	15624	9.38	2.14537872
19	15625	9.39	2.14537872
19	15626	9.4	2.14537872
19	15665	9.41	2.14537872
19	15700	9.42	2.14537872
19	15735	9.43	2.14537872
19	15736	9.44	2.14537872
19	15737	9.45	2.14537872
19	15772	9.46	2.14537872
19	15773	9.47	2.14537872
19	15774	9.48	2.14537872
19	15775	9.49	2.14537872
19	15776	9.5	2.14537872
19	15815	9.51	2.14537872
19	15850	9.52	2.14537872
19	15885	9.53	2.14537872
19	15886	9.54	2.14537872
19	15887	9.55	2.14537872
19	15922	9.56	2.14537872
19	15923	9.57	2.14537872
19	15924	9.58	2.14537872
19	15925	9.59	2.14537872
19	15926	9.6	2.14537872
19	15965	9.61	2.14537872
19	16000	9.62	2.14537872
19	16035	9.63	2.14537872
19	16036	9.64	2.14537872
19	16037	9.65	2.14537872
19	16072	9.66	2.14537872
19	16073	9.67	2.14537872
19	16074	9.68	2.14537872
19	16075	9.69	2.14537872
19	16076	9.7	2.14537872
19	16116	9.71	2.14537872
19	16407	9.72	2.14537872
19	16442	9.73	2.14537872
19	16443	9.74	2.14537872
19	16444	9.75	2.14537872
19	16480	9.76	2.14537872
19	16481	9.77	2.14537872
19	16482	9.78	2.14537872
19	16483	9.79	2.14537872
19	16484	9.8	2.14537872
19	16523	9.81	2.14537872
19	16558	9.82	2.14537872
19	16593	9.83	2.14537872
19	16594	9.84	2.14537872
19	16595	9.85	2.14537872
19	16630	9.86	2.14537872
19	16631	9.87	2.14537872
19	16632	9.88	2.14537872
[...]
2	67206	55.23	931.55726268403
2	67207	55.24	931.69615168374
2	67208	55.25	931.83504068346
2	67227	55.26	931.97392968317
2	67228	55.27	932.11281868289
2	67229	55.28	932.2517076826
2	67230	55.29	932.39059668231
2	67231	55.3	932.52948568203
2	67234	55.31	932.66837468175
2	67235	55.32	932.80726368146
2	67254	55.33	932.94615268118
2	67255	55.34	933.0850416809
2	67256	55.35	933.22393068061
2	67275	55.36	933.36281968033
2	67276	55.37	933.50170868005
2	67277	55.38	933.64059767977
2	67278	55.39	933.77948667949
2	67279	55.4	933.91837567921
2	67282	55.41	934.05726467893
2	67283	55.42	934.19615367865
2	67302	55.43	934.33504267837
2	67303	55.44	934.47393167809
2	67304	55.45	934.61282067782
2	67323	55.46	934.75170967754
2	67324	55.47	934.89059867726
2	67325	55.48	935.02948767698
2	67326	55.49	935.16837667671
2	67327	55.5	935.30726567643
2	67330	55.51	935.44615467616
2	67331	55.52	935.58504367588
2	67350	55.53	935.72393267561
2	67351	55.54	935.86282167533
2	67352	55.55	936.00171067506
2	67371	55.56	936.14059967479
2	67372	55.57	936.27948867451
2	67373	55.58	936.41837767424
2	67374	55.59	936.55726667397
2	67375	55.6	936.6961556737
2	67378	55.61	936.83504467343
2	67379	55.62	936.97393367316
2	67398	55.63	937.11282267289
2	67399	55.64	937.25171167262
2	67400	55.65	937.39060067235
2	67419	55.66	937.52948967208
2	67420	55.67	937.66837867181
2	67421	55.68	937.80726767154
2	67422	55.69	937.94615667127
2	67423	55.7	938.08504567101
2	67426	55.71	938.22393467074
2	67427	55.72	938.36282367047
2	67446	55.73	938.50171267021
2	67447	55.74	938.64060166994
2	67448	55.75	938.77949066968
2	67467	55.76	938.91837966941
2	67468	55.77	939.05726866915
2	67469	55.78	939.19615766888
2	67470	55.79	939.33504666862
2	67471	55.8	939.47393566836
2	67474	55.81	939.61282466809
2	67475	55.82	939.75171366783
2	67494	55.83	939.89060266757
2	67495	55.84	940.02949166731
2	67496	55.85	940.16838066705
2	67515	55.86	940.30726966679
2	67516	55.87	940.44615866653
2	67517	55.88	940.58504766627
2	67518	55.89	940.72393666601
2	67519	55.9	940.86282566575
2	67522	55.91	941.00171466549
2	67523	55.92	941.14060366523
2	67542	55.93	941.27949266497
2	67543	55.94	941.41838166472
2	67544	55.95	941.55727066446
2	67563	55.96	941.6961596642
2	67564	55.97	941.83504866395
2	67565	55.98	941.97393766369
2	67566	55.99	942.11282666343
2	67569	56	942.25171566318
2	67572	56.01	942.39060466292
2	67573	56.02	942.52949366267
2	67592	56.03	942.66838266242
2	67593	56.04	942.80727166216
2	67594	56.05	942.94616066191
2	67613	56.06	943.08504966166
2	67614	56.07	943.2239386614
2	67615	56.08	943.36282766115
2	67616	56.09	943.5017166609
2	67617	56.1	943.64060566065
2	67620	56.11	943.7794946604
2	67621	56.12	943.91838366015
2	67640	56.13	944.0572726599
2	67641	56.14	944.19616165965
2	67642	56.15	944.3350506594
2	67661	56.16	944.47393965915
2	67662	56.17	944.6128286589
2	67663	56.18	944.75171765866
2	67664	56.19	944.89060665841
2	67665	56.2	945.02949565816
2	67668	56.21	945.16838465791
2	67669	56.22	945.30727365767
2	67688	56.23	945.44616265742
2	67689	56.24	945.58505165718
2	67690	56.25	945.72394065693
2	67709	56.26	945.86282965669
2	67710	56.27	946.00171865644
2	67711	56.28	946.1406076562
2	67712	56.29	946.27949665595
2	67713	56.3	946.41838565571
2	67716	56.31	946.55727465547
2	67717	56.32	946.69616365522
2	67736	56.33	946.83505265498
2	67737	56.34	946.97394165474
2	67738	56.35	947.1128306545
2	67757	56.36	947.25171965426
2	67758	56.37	947.39060865402
2	67759	56.38	947.52949765378
2	67760	56.39	947.66838665354
2	67761	56.4	947.8072756533
2	67764	56.41	947.94616465306
2	67765	56.42	948.08505365282
2	67784	56.43	948.22394265258
2	67785	56.44	948.36283165234
2	67786	56.45	948.5017206521
2	67805	56.46	948.64060965187
2	67806	56.47	948.77949865163
2	67807	56.48	948.91838765139
2	67808	56.49	949.05727665116
2	67809	56.5	949.19616565092
2	67812	56.51	949.33505465069
2	67813	56.52	949.47394365045
2	67832	56.53	949.61283265022
2	67833	56.54	949.75172164998
2	67834	56.55	949.89061064975
2	67853	56.56	950.02949964951
2	67854	56.57	950.16838864928
2	67855	56.58	950.30727764905
2	67856	56.59	950.44616664881
2	67857	56.6	950.58505564858
2	67860	56.61	950.72394464835
2	67861	56.62	950.86283364812
2	67880	56.63	951.00172264789
2	67881	56.64	951.14061164766
2	67882	56.65	951.27950064743
2	67901	56.66	951.4183896472
2	67902	56.67	951.55727864697
2	67903	56.68	951.69616764674
2	67904	56.69	951.83505664651
2	67905	56.7	951.97394564628
2	67908	56.71	952.11283464605
2	67909	56.72	952.25172364582
2	67928	56.73	952.3906126456
2	67929	56.74	952.52950164537
2	67930	56.75	952.66839064514
2	67949	56.76	952.80727964491
2	67950	56.77	952.94616864469
2	67951	56.78	953.08505764446
2	67952	56.79	953.22394664424
2	67953	56.8	953.36283564401
2	67956	56.81	953.50172464379
2	67957	56.82	953.64061364356
2	67976	56.83	953.77950264334
2	67977	56.84	953.91839164312
2	67978	56.85	954.05728064289
2	67997	56.86	954.19616964267
2	67998	56.87	954.33505864245
2	67999	56.88	954.47394764222
2	68000	56.89	954.612836642
2	68001	56.9	954.75172564178
2	68004	56.91	954.89061464156
2	68005	56.92	955.02950364134
2	68024	56.93	955.16839264112
2	68025	56.94	955.3072816409
2	68026	56.95	955.44617064068
2	68045	56.96	955.58505964046
2	68046	56.97	955.72394864024
2	68047	56.98	955.86283764002
2	68048	56.99	956.0017266398
2	68051	57	956.14061563958
2	68054	57.01	956.27950463937
2	68055	57.02	956.41839363915
2	68074	57.03	956.55728263893
2	68075	57.04	956.69617163871
2	68076	57.05	956.8350606385
2	68095	57.06	956.97394963828
2	68096	57.07	957.11283863806
2	68097	57.08	957.25172763785
2	68098	57.09	957.39061663763
2	68099	57.1	957.52950563742
2	68102	57.11	957.66839463721
2	68103	57.12	957.80728363699
2	68122	57.13	957.94617263678
2	68123	57.14	958.08506163656
2	68124	57.15	958.22395063635
2	68143	57.16	958.36283963614
2	68144	57.17	958.50172863593
2	68145	57.18	958.64061763571
2	68146	57.19	958.7795066355
2	68147	57.2	958.91839563529
2	68150	57.21	959.05728463508
2	68151	57.22	959.19617363487
2	68170	57.23	959.33506263466
2	68171	57.24	959.47395163445
2	68172	57.25	959.61284063424
2	68191	57.26	959.75172963403
2	68192	57.27	959.89061863382
2	68193	57.28	960.02950763361
2	68194	57.29	960.1683966334
2	68195	57.3	960.30728563319
2	68198	57.31	960.44617463299
2	68199	57.32	960.58506363278
2	68218	57.33	960.72395263257
2	68219	57.34	960.86284163236
2	68220	57.35	961.00173063216
2	68239	57.36	961.14061963195
2	68240	57.37	961.27950863174
2	68241	57.38	961.41839763154
2	68242	57.39	961.55728663133
2	68243	57.4	961.69617563113
2	68246	57.41	961.83506463092
2	68247	57.42	961.97395363072
2	68266	57.43	962.11284263052
2	68267	57.44	962.25173163031
2	68268	57.45	962.39062063011
2	68287	57.46	962.52950962991
2	68288	57.47	962.6683986297
2	68289	57.48	962.8072876295
2	68290	57.49	962.9461766293
2	68291	57.5	963.0850656291
2	68294	57.51	963.22395462889
2	68295	57.52	963.36284362869
2	68314	57.53	963.50173262849
2	68315	57.54	963.64062162829
2	68316	57.55	963.77951062809
2	68335	57.56	963.91839962789
2	68336	57.57	964.05728862769
2	68337	57.58	964.19617762749
2	68338	57.59	964.33506662729
2	68339	57.6	964.4739556271
2	68342	57.61	964.6128446269
2	68343	57.62	964.7517336267
2	68362	57.63	964.8906226265
2	68363	57.64	965.0295116263
2	68364	57.65	965.16840062611
2	68383	57.66	965.30728962591
2	68384	57.67	965.44617862571
2	68385	57.68	965.58506762552
2	68386	57.69	965.72395662532
2	68387	57.7	965.86284562513
2	68390	57.71	966.00173462493
2	68391	57.72	966.14062362474
2	68410	57.73	966.27951262454
2	68411	57.74	966.41840162435
2	68412	57.75	966.55729062415
2	68431	57.76	966.69617962396
2	68432	57.77	966.83506862377
2	68433	57.78	966.97395762357
2	68434	57.79	967.11284662338
2	68435	57.8	967.25173562319
2	68438	57.81	967.39062462299
2	68439	57.82	967.5295136228
2	68458	57.83	967.66840262261
2	68459	57.84	967.80729162242
2	68460	57.85	967.94618062223
2	68479	57.86	968.08506962204
2	68480	57.87	968.22395862185
2	68481	57.88	968.36284762166
2	68482	57.89	968.50173662147
2	68483	57.9	968.64062562128
2	68486	57.91	968.77951462109
2	68487	57.92	968.9184036209
2	68506	57.93	969.05729262071
2	68507	57.94	969.19618162052
2	68508	57.95	969.33507062033
2	68527	57.96	969.47395962015
2	68528	57.97	969.61284861996
2	68529	57.98	969.75173761977
2	68530	57.99	969.89062661958
2	68533	58	970.0295156194
2	68536	58.01	970.16840461921
2	68537	58.02	970.30729361903
2	68556	58.03	970.44618261884
2	68557	58.04	970.58507161865
2	68558	58.05	970.72396061847
2	68577	58.06	970.86284961828
2	68578	58.07	971.0017386181
2	68579	58.08	971.14062761791
2	68580	58.09	971.27951661773
2	68581	58.1	971.41840561755
2	68584	58.11	971.55729461736
2	68585	58.12	971.69618361718
2	68604	58.13	971.835072617
2	68605	58.14	971.97396161681
2	68606	58.15	972.11285061663
2	68625	58.16	972.25173961645
2	68626	58.17	972.39062861627
2	68627	58.18	972.52951761609
2	68628	58.19	972.66840661591
2	68629	58.2	972.80729561573
2	68632	58.21	972.94618461554
2	68633	58.22	973.08507361536
2	68652	58.23	973.22396261518
2	68653	58.24	973.362851615
2	68654	58.25	973.50174061482
2	68673	58.26	973.64062961465
2	68674	58.27	973.77951861447
2	68675	58.28	973.91840761429
2	68676	58.29	974.05729661411
2	68677	58.3	974.19618561393
2	68680	58.31	974.33507461375
2	68681	58.32	974.47396361358
2	68700	58.33	974.6128526134
2	68701	58.34	974.75174161322
2	68702	58.35	974.89063061304
2	68721	58.36	975.02951961287
2	68722	58.37	975.16840861269
2	68723	58.38	975.30729761252
2	68724	58.39	975.44618661234
2	68725	58.4	975.58507561217
2	68728	58.41	975.72396461199
2	68729	58.42	975.86285361182
2	68748	58.43	976.00174261164
2	68749	58.44	976.14063161147
2	68750	58.45	976.27952061129
2	68769	58.46	976.41840961112
2	68770	58.47	976.55729861095
2	68771	58.48	976.69618761077
2	68772	58.49	976.8350766106
2	68773	58.5	976.97396561043
2	68776	58.51	977.11285461025
2	68777	58.52	977.25174361008
2	68796	58.53	977.39063260991
2	68797	58.54	977.52952160974
2	68798	58.55	977.66841060957
2	68817	58.56	977.8072996094
2	68818	58.57	977.94618860923
2	68819	58.58	978.08507760906
2	68820	58.59	978.22396660889
2	68821	58.6	978.36285560872
2	68824	58.61	978.50174460855
2	68825	58.62	978.64063360838
2	68844	58.63	978.77952260821
2	68845	58.64	978.91841160804
2	68846	58.65	979.05730060787
2	68865	58.66	979.1961896077
2	68866	58.67	979.33507860753
2	68867	58.68	979.47396760736
2	68868	58.69	979.6128566072
2	68869	58.7	979.75174560703
2	68872	58.71	979.89063460686
2	68873	58.72	980.0295236067
2	68892	58.73	980.16841260653
2	68893	58.74	980.30730160636
2	68894	58.75	980.4461906062
2	68913	58.76	980.58507960603
2	68914	58.77	980.72396860587
2	68915	58.78	980.8628576057
2	68916	58.79	981.00174660554
2	68917	58.8	981.14063560537
2	68920	58.81	981.27952460521
2	68921	58.82	981.41841360504
2	68940	58.83	981.55730260488
2	68941	58.84	981.69619160471
2	68942	58.85	981.83508060455
2	68961	58.86	981.97396960439
2	68962	58.87	982.11285860422
2	68963	58.88	982.25174760406
2	68964	58.89	982.3906366039
2	68965	58.9	982.52952560374
2	68968	58.91	982.66841460358
2	68969	58.92	982.80730360341
2	68988	58.93	982.94619260325
2	68989	58.94	983.08508160309
2	68990	58.95	983.22397060293
2	69009	58.96	983.36285960277
2	69010	58.97	983.50174860261
2	69011	58.98	983.64063760245
2	69012	58.99	983.77952660229
2	69015	59	983.91841560213
2	69018	59.01	984.05730460197
2	69019	59.02	984.19619360181
2	69038	59.03	984.33508260165
2	69039	59.04	984.47397160149
2	69040	59.05	984.61286060133
2	69059	59.06	984.75174960118
2	69060	59.07	984.89063860102
2	69061	59.08	985.02952760086
2	69062	59.09	985.1684166007
2	69063	59.1	985.30730560055
2	69066	59.11	985.44619460039
2	69067	59.12	985.58508360023
2	69086	59.13	985.72397260008
2	69087	59.14	985.86286159992
2	69088	59.15	986.00175059976
2	69107	59.16	986.14063959961
2	69108	59.17	986.27952859945
2	69109	59.18	986.4184175993
2	69110	59.19	986.55730659914
2	69111	59.2	986.69619559899
2	69114	59.21	986.83508459883
2	69115	59.22	986.97397359868
2	69134	59.23	987.11286259852
2	69135	59.24	987.25175159837
2	69136	59.25	987.39064059822
2	69155	59.26	987.52952959806
2	69156	59.27	987.66841859791
2	69157	59.28	987.80730759776
2	69158	59.29	987.94619659761
2	69159	59.3	988.08508559745
2	69162	59.31	988.2239745973
2	69163	59.32	988.36286359715
2	69182	59.33	988.501752597
2	69183	59.34	988.64064159685
2	69184	59.35	988.77953059669
2	69203	59.36	988.91841959654
2	69204	59.37	989.05730859639
2	69205	59.38	989.19619759624
2	69206	59.39	989.33508659609
2	69207	59.4	989.47397559594
2	69210	59.41	989.61286459579
2	69211	59.42	989.75175359564
2	69230	59.43	989.89064259549
2	69231	59.44	990.02953159534
2	69232	59.45	990.1684205952
2	69251	59.46	990.30730959505
2	69252	59.47	990.4461985949
2	69253	59.48	990.58508759475
2	69254	59.49	990.7239765946
2	69255	59.5	990.86286559446
2	69258	59.51	991.00175459431
2	69259	59.52	991.14064359416
2	69278	59.53	991.27953259401
2	69279	59.54	991.41842159387
2	69280	59.55	991.55731059372
2	69299	59.56	991.69619959357
2	69300	59.57	991.83508859343
2	69301	59.58	991.97397759328
2	69302	59.59	992.11286659314
2	69303	59.6	992.25175559299
2	69306	59.61	992.39064459285
2	69307	59.62	992.5295335927
2	69326	59.63	992.66842259256
2	69327	59.64	992.80731159241
2	69328	59.65	992.94620059227
2	69347	59.66	993.08508959212
2	69348	59.67	993.22397859198
2	69349	59.68	993.36286759183
2	69350	59.69	993.50175659169
2	69351	59.7	993.64064559155
2	69354	59.71	993.77953459141
2	69355	59.72	993.91842359126
2	69374	59.73	994.05731259112
2	69375	59.74	994.19620159098
2	69376	59.75	994.33509059084
2	69395	59.76	994.47397959069
2	69396	59.77	994.61286859055
2	69397	59.78	994.75175759041
2	69398	59.79	994.89064659027
2	69399	59.8	995.02953559013
2	69402	59.81	995.16842458999
2	69403	59.82	995.30731358985
2	69422	59.83	995.44620258971
2	69423	59.84	995.58509158957
2	69424	59.85	995.72398058943
2	69443	59.86	995.86286958929
2	69444	59.87	996.00175858915
2	69445	59.88	996.14064758901
2	69446	59.89	996.27953658887
2	69447	59.9	996.41842558873
2	69450	59.91	996.55731458859
2	69451	59.92	996.69620358845
2	69470	59.93	996.83509258832
2	69471	59.94	996.97398158818
2	69472	59.95	997.11287058804
2	69491	59.96	997.2517595879
2	69492	59.97	997.39064858777
2	69493	59.98	997.52953758763
2	69494	59.99	997.66842658749
2	69497	60	997.80731558736
2	69500	60.01	997.94620458722
2	69501	60.02	998.08509358708
2	69520	60.03	998.22398258695
2	69521	60.04	998.36287158681
2	69522	60.05	998.50176058668
2	69541	60.06	998.64064958654
2	69542	60.07	998.77953858641
2	69543	60.08	998.91842758627
2	69544	60.09	999.05731658614
2	69545	60.1	999.196205586
2	69548	60.11	999.33509458587
2	69549	60.12	999.47398358573
2	69568	60.13	999.6128725856
2	69569	60.14	999.75176158547
2	69570	60.15	999.89065058533
2	69589	60.16	1000.0295395852
2	69590	60.17	1000.1684285851
2	69591	60.18	1000.3073175849
2	69592	60.19	1000.4462065848
2	69593	60.2	1000.5850955847
2	69596	60.21	1000.7239845845
2	69597	60.22	1000.8628735844
2	69616	60.23	1001.0017625843
2	69617	60.24	1001.1406515841
2	69618	60.25	1001.279540584
2	69637	60.26	1001.4184295839
2	69638	60.27	1001.5573185837
2	69639	60.28	1001.6962075836
2	69640	60.29	1001.8350965835
2	69641	60.3	1001.9739855834
2	69644	60.31	1002.1128745832
2	69645	60.32	1002.2517635831
2	69664	60.33	1002.390652583
2	69665	60.34	1002.5295415828
2	69666	60.35	1002.6684305827
2	69685	60.36	1002.8073195826
2	69686	60.37	1002.9462085824
2	69687	60.38	1003.0850975823
2	69688	60.39	1003.2239865822
2	69689	60.4	1003.3628755821
2	69692	60.41	1003.5017645819
2	69693	60.42	1003.6406535818
2	69712	60.43	1003.7795425817
2	69713	60.44	1003.9184315816
2	69714	60.45	1004.0573205814
2	69733	60.46	1004.1962095813
2	69734	60.47	1004.3350985812
2	69735	60.48	1004.473987581
2	69736	60.49	1004.6128765809
2	69737	60.5	1004.7517655808
2	69740	60.51	1004.8906545807
2	69741	60.52	1005.0295435805
2	69760	60.53	1005.1684325804
2	69761	60.54	1005.3073215803
2	69762	60.55	1005.4462105802
2	69781	60.56	1005.58509958
2	69782	60.57	1005.7239885799
2	69783	60.58	1005.8628775798
2	69784	60.59	1006.0017665797
2	69785	60.6	1006.1406555795
2	69788	60.61	1006.2795445794
2	69789	60.62	1006.4184335793
2	69808	60.63	1006.5573225792
2	69809	60.64	1006.696211579
2	69810	60.65	1006.8351005789
2	69829	60.66	1006.9739895788
2	69830	60.67	1007.1128785787
2	69831	60.68	1007.2517675786
2	69832	60.69	1007.3906565784
2	69833	60.7	1007.5295455783
2	69836	60.71	1007.6684345782
2	69837	60.72	1007.8073235781
2	69856	60.73	1007.9462125779
2	69857	60.74	1008.0851015778
2	69858	60.75	1008.2239905777
2	69877	60.76	1008.3628795776
2	69878	60.77	1008.5017685775
2	69879	60.78	1008.6406575773
2	69880	60.79	1008.7795465772
2	69881	60.8	1008.9184355771
2	69884	60.81	1009.057324577
2	69885	60.82	1009.1962135769
2	69904	60.83	1009.3351025767
2	69905	60.84	1009.4739915766
2	69906	60.85	1009.6128805765
2	69925	60.86	1009.7517695764
2	69926	60.87	1009.8906585763
2	69927	60.88	1010.0295475761
2	69928	60.89	1010.168436576
2	69929	60.9	1010.3073255759
2	69932	60.91	1010.4462145758
2	69933	60.92	1010.5851035757
2	69952	60.93	1010.7239925755
2	69953	60.94	1010.8628815754
2	69954	60.95	1011.0017705753
2	69973	60.96	1011.1406595752
2	69974	60.97	1011.2795485751
2	69975	60.98	1011.418437575
2	69976	60.99	1011.5573265748
2	69979	61	1011.6962155747
2	69982	61.01	1011.8351045746
2	69983	61.02	1011.9739935745
2	70002	61.03	1012.1128825744
2	70003	61.04	1012.2517715743
2	70004	61.05	1012.3906605741
2	70023	61.06	1012.529549574
2	70024	61.07	1012.6684385739
2	70025	61.08	1012.8073275738
2	70026	61.09	1012.9462165737
2	70027	61.1	1013.0851055736
2	70030	61.11	1013.2239945734
2	70031	61.12	1013.3628835733
2	70050	61.13	1013.5017725732
2	70051	61.14	1013.6406615731
2	70052	61.15	1013.779550573
2	70071	61.16	1013.9184395729
2	70072	61.17	1014.0573285728
2	70073	61.18	1014.1962175726
2	70074	61.19	1014.3351065725
2	70075	61.2	1014.4739955724
2	70078	61.21	1014.6128845723
2	70079	61.22	1014.7517735722
2	70098	61.23	1014.8906625721
2	70099	61.24	1015.029551572
2	70100	61.25	1015.1684405719
2	70119	61.26	1015.3073295717
2	70120	61.27	1015.4462185716
2	70121	61.28	1015.5851075715
2	70122	61.29	1015.7239965714
2	70123	61.3	1015.8628855713
2	70126	61.31	1016.0017745712
2	70127	61.32	1016.1406660221
2	70138	61.33	1016.2795647778
2	70139	61.34	1016.4184755972
2	70140	61.35	1016.5574031456
2	70141	61.36	1016.6963519969
2	70142	61.37	1016.8353266355
2	70143	61.38	1016.9743314577
2	70144	61.39	1017.1133707735
2	70145	61.4	1017.2524488086
2	70147	61.41	1017.3915697058
2	70148	61.42	1017.5307375265
2	70159	61.43	1017.6699562528
2	70160	61.44	1017.8092297883
2	70161	61.45	1017.9485619604
2	70162	61.46	1018.0879565212
2	70163	61.47	1018.2274171495
2	70164	61.48	1018.3669474518
2	70165	61.49	1018.5065509638
2	70166	61.5	1018.646231152
2	70168	61.51	1018.785991415
2	70169	61.52	1018.9258350845
2	70180	61.53	1019.0657654273
2	70181	61.54	1019.2057856456
2	70182	61.55	1019.3458988793
2	70183	61.56	1019.4861082064
2	70184	61.57	1019.6264166448
2	70185	61.58	1019.766827153
2	70186	61.59	1019.9073426316
2	70187	61.6	1020.0479659244
2	70189	61.61	1020.1886998192
2	70190	61.62	1020.3295470495
2	70201	61.63	1020.4705102949
2	70202	61.64	1020.6115921824
2	70203	61.65	1020.7527952879
2	70204	61.66	1020.8941221364
2	70205	61.67	1021.0355752036
2	70206	61.68	1021.1771569165
2	70207	61.69	1021.3188696547
2	70208	61.7	1021.4607157509
2	70210	61.71	1021.6026974923
2	70211	61.72	1021.7448171211
2	70222	61.73	1021.8870768356
2	70223	61.74	1022.029478791
2	70224	61.75	1022.1720251002
2	70225	61.76	1022.3147178347
2	70226	61.77	1022.4575590254
2	70227	61.78	1022.6005506634
2	70228	61.79	1022.7436947006
2	70229	61.8	1022.8869930508
2	70231	61.81	1023.0304475902
2	70232	61.82	1023.1740601582
2	70243	61.83	1023.3178325583
2	70244	61.84	1023.4617665583
2	70245	61.85	1023.6058638917
2	70246	61.86	1023.7501262577
2	70247	61.87	1023.8945553225
2	70248	61.88	1024.0391527193
2	70249	61.89	1024.1839200495
2	70250	61.9	1024.328858883
2	70252	61.91	1024.473970759
2	70253	61.92	1024.6192571865
2	70264	61.93	1024.7647196448

