version 3
run OvertakeNoGui-254-20241104-10:04:30-91759
attr configname OvertakeNoGui
attr datetime 20241104-10:04:30
attr datetimef 20241104-100430
attr experiment OvertakeNoGui
attr inifile omnetpp.ini
attr iterationvars "$leaderHeadway=1.2, $leaderSpeed=50, $controller=0, $pCSpeed=57, $pDeltaC=474"
attr iterationvarsd leaderHeadway=1.2/leaderSpeed=50/controller=0/pCSpeed=57/pDeltaC=474
attr iterationvarsf leaderHeadway=1.2,leaderSpeed=50,controller=0,pCSpeed=57,pDeltaC=474-
attr measurement "$leaderHeadway=1.2, $leaderSpeed=50, $controller=0, $pCSpeed=57, $pDeltaC=474"
attr network Overtake
attr processid 91759
attr repetition 0
attr replication #0
attr resultdir results
attr runnumber 254
attr seedset 0
itervar controller 0
itervar leaderHeadway 1.2
itervar leaderSpeed 50
itervar pCSpeed 57
itervar pDeltaC 474
config image-path ../../../../veins/images;../../images
config *.manager.command "\"sumo\""
config *.manager.ignoreGuiCommands true
config *.node[*].scenario_type "\"OvertakeScenario\""
config output-vector-file results/OvertakeNoGui_57_474_0.vec
config output-scalar-file results/OvertakeNoGui_57_474_0.sca
config cmdenv-express-mode false
config cmdenv-autoflush true
config cmdenv-status-frequency 10s
config num-rngs 6
config cmdenv-output-file log.txt
config cmdenv-redirect-output true
config network Overtake
config debug-on-errors true
config print-undisposed true
config *.playgroundSizeX 65000m
config *.playgroundSizeY 25000m
config *.playgroundSizeZ 50m
config sim-time-limit "360 s"
config *.annotations.draw false
config *.obstacles.debug false
config *.world.useTorus false
config *.world.use2D false
config *.manager.updateInterval 0.01s
config *.manager.host "\"localhost\""
config *.manager.moduleType "\"vtypeauto=org.car2x.plexe.PlatoonCar vtypehuman=0\""
config *.manager.moduleName "\"vtypeauto=node vtypehuman=0\""
config *.manager.moduleDisplayString "\"\""
config *.manager.autoShutdown true
config *.manager.margin 25
config *.manager.order -1
config *.connectionManager.sendDirect true
config *.connectionManager.maxInterfDist 2600m
config *.connectionManager.drawMaxIntfDist false
config *.**.nic.mac1609_4.useServiceChannel false
config *.**.nic.mac1609_4.txPower 100mW
config *.**.nic.mac1609_4.bitrate 6Mbps
config *.**.nic.mac1609_4.useAcks true
config *.**.nic.mac1609_4.ackErrorRate 0.0
config *.**.nic.mac1609_4.frameErrorRate 0.0
config *.**.nic.phy80211p.minPowerLevel -94dBm
config *.**.nic.phy80211p.maxTXPower 100mW
config *.**.nic.phy80211p.useNoiseFloor true
config *.**.nic.phy80211p.noiseFloor -95dBm
config *.**.nic.phy80211p.decider "xmldoc(\"config.xml\")"
config *.**.nic.phy80211p.analogueModels "xmldoc(\"config.xml\")"
config *.**.nic.phy80211p.usePropagationDelay true
config *.node[*].mobility.x 0
config *.node[*].mobility.y 0
config *.node[*].mobility.z 1.895
config *.shockwave[*].mobility.x 0
config *.shockwave[*].mobility.y 0
config *.shockwave[*].mobility.z 1.895
config seed-set 0
config **.seed 0
config *.node[*].prot.rng-0 2
config *.node[*].appl.rng-0 3
config *.node[*].scenario.rng-0 4
config *.manager.configFile "\"./sumocfg/overtake.sumo.cfg\""
config *.manager.launchConfig "xmldoc(\"./sumocfg/overtake.launchd.xml\")"
config *.node[*].helper_type "\"PositionHelper\""
config *.node[*].scenario.caccC1 0.5
config *.node[*].scenario.caccXi 1
config *.node[*].scenario.caccOmegaN "0.2 Hz"
config *.node[*].scenario.caccSpacing "5 m"
config *.node[*].scenario.engineTau "0.5 s"
config *.node[*].scenario.ploegH "0.5 s"
config *.node[*].scenario.ploegKp 0.2
config *.node[*].scenario.ploegKd 0.7
config *.node[*].scenario.useRealisticEngine false
config *.node[*].scenario.targetController "\"CACC\""
config *.node[*].scenario.accHeadway "0.1 s"
config *.node[*].scenario.leaderHeadway "1.2 s"
config *.node[*].scenario.leaderSpeed "50 kmph"
config *.node[*].appl_type "\"OvertakeApp\""
config *.node[*].appl.*.scalar-recording true
config *.node[*].appl.*.vector-recording true
config *.node[*].appl.overtakeManeuver "\"OvertakeManeuver\""
config *.node[*].protocol_type "\"SimplePlatooningBeaconing\""
config *.node[*].prot.*.scalar-recording true
config *.node[*].prot.*.vector-recording true
config *.node[*].prot.beaconingInterval "0.1 s"
config *.node[*].prot.priority 4
config *.node[*].prot.packetSize 200
config *.node[*].prot.useControllerAcceleration true
config **.traffic_type "\"OvertakeTrafficManager\""
config **.traffic.platoonInsertTime "0.1 s"
config **.traffic.platooningVType "\"vtypeauto\""
config **.numericController 0
config **.traffic.platoonInsertDistance 5m
config **.traffic.platoonInsertHeadway 0s
config **.traffic.platoonLeaderHeadway 1.2s
config **.traffic.platoonASpeed 50kmph
config **.traffic.platoonBSpeed 100kmph
config **.traffic.platoonCSpeed 57kmph
config **.traffic.platoonSizeA 2
config **.traffic.platoonSizeB 1
config **.traffic.platoonSizeC 1
config **.traffic.initialPositionDeltaA 150
config **.traffic.initialPositionDeltaB 50
config **.traffic.initialPositionDeltaC 474
config **.traffic.controller "\"CACC\""
config **.scalar-recording true
config **.vector-recording true

vector 0 Overtake.node[0].mobility posx ETV
vector 1 Overtake.node[0].mobility posy ETV
vector 2 Overtake.node[1].mobility posx ETV
vector 3 Overtake.node[1].mobility posy ETV
vector 4 Overtake.node[2].mobility posx ETV
vector 5 Overtake.node[2].mobility posy ETV
vector 6 Overtake.node[3].mobility posx ETV
vector 7 Overtake.node[3].mobility posy ETV
vector 8 Overtake.node[0].mobility speed ETV
vector 9 Overtake.node[1].mobility speed ETV
vector 10 Overtake.node[2].mobility speed ETV
vector 11 Overtake.node[3].mobility speed ETV
vector 12 Overtake.node[0].mobility acceleration ETV
vector 13 Overtake.node[0].mobility co2emission ETV
vector 14 Overtake.node[1].mobility acceleration ETV
vector 15 Overtake.node[1].mobility co2emission ETV
vector 16 Overtake.node[2].mobility acceleration ETV
vector 17 Overtake.node[2].mobility co2emission ETV
vector 18 Overtake.node[3].mobility acceleration ETV
vector 19 Overtake.node[3].mobility co2emission ETV
vector 20 Overtake.node[0].appl distance ETV
vector 21 Overtake.node[0].appl relativeSpeed ETV
vector 22 Overtake.node[0].appl nodeId ETV
vector 23 Overtake.node[0].appl acceleration ETV
vector 24 Overtake.node[0].appl controllerAcceleration ETV
vector 25 Overtake.node[0].appl speed ETV
vector 26 Overtake.node[0].appl posx ETV
vector 27 Overtake.node[0].appl posy ETV
vector 28 Overtake.node[1].appl distance ETV
vector 29 Overtake.node[1].appl relativeSpeed ETV
vector 30 Overtake.node[1].appl nodeId ETV
vector 31 Overtake.node[1].appl acceleration ETV
vector 32 Overtake.node[1].appl controllerAcceleration ETV
vector 33 Overtake.node[1].appl speed ETV
vector 34 Overtake.node[1].appl posx ETV
vector 35 Overtake.node[1].appl posy ETV
vector 36 Overtake.node[2].appl distance ETV
vector 37 Overtake.node[2].appl relativeSpeed ETV
vector 38 Overtake.node[2].appl nodeId ETV
vector 39 Overtake.node[2].appl acceleration ETV
vector 40 Overtake.node[2].appl controllerAcceleration ETV
vector 41 Overtake.node[2].appl speed ETV
vector 42 Overtake.node[2].appl posx ETV
vector 43 Overtake.node[2].appl posy ETV
vector 44 Overtake.node[3].appl distance ETV
vector 45 Overtake.node[3].appl relativeSpeed ETV
vector 46 Overtake.node[3].appl nodeId ETV
vector 47 Overtake.node[3].appl acceleration ETV
vector 48 Overtake.node[3].appl controllerAcceleration ETV
vector 49 Overtake.node[3].appl speed ETV
vector 50 Overtake.node[3].appl posx ETV
vector 51 Overtake.node[3].appl posy ETV
vector 52 Overtake.node[1].prot leaderDelay ETV
vector 53 Overtake.node[1].prot leaderDelayId ETV
vector 54 Overtake.node[1].prot frontDelay ETV
vector 55 Overtake.node[1].prot frontDelayId ETV
vector 56 Overtake.node[0].prot nodeId ETV
vector 57 Overtake.node[0].prot busyTime ETV
vector 58 Overtake.node[0].prot collisions ETV
vector 59 Overtake.node[1].prot nodeId ETV
vector 60 Overtake.node[1].prot busyTime ETV
vector 61 Overtake.node[1].prot collisions ETV
vector 62 Overtake.node[2].prot nodeId ETV
vector 63 Overtake.node[2].prot busyTime ETV
vector 64 Overtake.node[2].prot collisions ETV
vector 65 Overtake.node[3].prot nodeId ETV
vector 66 Overtake.node[3].prot busyTime ETV
vector 67 Overtake.node[3].prot collisions ETV
48	26	0.21	0.00327777
48	176	0.31	0.00320128
48	326	0.41	0.00308111
48	476	0.51	0.00292728
48	626	0.61	0.00274857
48	776	0.71	0.00255267
48	926	0.81	0.00234618
48	1076	0.91	0.00213471
48	1230	1.01	0.00192294
48	1381	1.11	0.00171473
48	1532	1.21	0.00151316
48	1683	1.31	0.00132067
48	2046	1.41	0.00113907
48	2196	1.51	0.000969668
48	2346	1.61	0.000813306
48	2496	1.71	0.000670447
48	2646	1.81	0.000541228
48	2796	1.91	0.000425516
48	2950	2.01	0.00032296
48	3100	2.11	0.000233036
48	3250	2.21	0.000155087
48	3400	2.31	8.83603e-05
48	3550	2.41	3.20362e-05
48	3700	2.51	-1.47438e-05
48	3850	2.61	-5.28552e-05
48	4000	2.71	-8.31719e-05
48	4150	2.81	-0.00010655
48	4300	2.91	-0.000123818
48	4454	3.01	-0.000135762
48	4604	3.11	-0.000143126
48	4754	3.21	-0.0001466
48	4904	3.31	-0.00014682
48	5054	3.41	-0.000144367
48	5204	3.51	-0.000139766
48	5354	3.61	-0.000133484
48	5504	3.71	-0.000125937
48	5654	3.81	-0.000117487
48	5804	3.91	-0.000108447
48	5958	4.01	-9.9087e-05
48	6108	4.11	-8.9631e-05
48	6258	4.21	-8.02661e-05
48	6408	4.31	-7.1144e-05
48	6558	4.41	-6.23847e-05
48	6708	4.51	-5.40801e-05
48	6858	4.61	-4.62974e-05
48	7008	4.71	-3.90826e-05
48	7158	4.81	-3.24629e-05
48	7308	4.91	-2.64502e-05
48	7462	5.01	-2.10433e-05
48	7612	5.11	-1.62303e-05
48	7762	5.21	-1.19909e-05
48	7912	5.31	-8.298e-06
48	8062	5.41	-5.11973e-06
48	8212	5.51	-2.42061e-06
48	8362	5.61	-1.62981e-07
48	8512	5.71	1.69199e-06
48	8662	5.81	3.18336e-06
48	8812	5.91	4.34971e-06
48	8966	6.01	5.2285e-06
48	9116	6.11	5.85565e-06
48	9266	6.21	6.26509e-06
48	9416	6.31	6.48862e-06
48	9566	6.41	6.5556e-06
48	9716	6.51	6.49297e-06
48	9866	6.61	6.32514e-06
48	10016	6.71	6.07401e-06
48	10166	6.81	5.75905e-06
48	10316	6.91	5.39739e-06
48	10470	7.01	5.00389e-06
48	10620	7.11	4.59133e-06
48	10770	7.21	4.17054e-06
48	10920	7.31	3.75054e-06
48	11070	7.41	3.33873e-06
48	11220	7.51	2.94102e-06
48	11370	7.61	2.56201e-06
48	11520	7.71	2.20513e-06
48	11670	7.81	1.87282e-06
48	11820	7.91	1.56662e-06
48	11974	8.01	1.28733e-06
48	12124	8.11	1.03512e-06
48	12274	8.21	8.09661e-07
48	12424	8.31	6.10182e-07
48	12574	8.41	4.35596e-07
48	12724	8.51	2.84561e-07
48	12874	8.61	1.55556e-07
48	13024	8.71	4.6937e-08
48	13174	8.81	-4.30102e-08
48	13324	8.91	-1.16027e-07
48	13478	9.01	-1.73845e-07
48	13628	9.11	-2.18158e-07
48	13778	9.21	-2.50597e-07
48	13928	9.31	-2.72714e-07
48	14078	9.41	-2.85966e-07
48	14228	9.51	-2.91708e-07
48	14378	9.61	-2.91186e-07
48	14528	9.71	-2.85536e-07
48	14678	9.81	-2.75779e-07
48	14828	9.91	-2.62829e-07
48	14982	10.01	-2.47491e-07
48	15132	10.11	-2.3047e-07
48	15282	10.21	-2.12373e-07
48	15432	10.31	-1.93718e-07
48	15582	10.41	-1.7494e-07
48	15732	10.51	-1.56398e-07
48	15882	10.61	-1.38382e-07
48	16032	10.71	-1.2112e-07
48	16182	10.81	-1.04787e-07
48	16332	10.91	-8.95092e-08
48	16486	11.01	-7.53703e-08
48	16636	11.11	-6.24198e-08
48	16786	11.21	-5.06763e-08
48	16936	11.31	-4.01336e-08
48	17087	11.41	-3.07651e-08
48	17237	11.51	-2.25279e-08
48	17387	11.61	-1.53664e-08
48	17537	11.71	-9.21592e-09
48	17687	11.81	-4.00515e-09
48	17837	11.91	3.41416e-10
48	17991	12.01	3.90088e-09
48	18141	12.11	6.75104e-09
48	18291	12.21	8.96812e-09
48	18441	12.31	1.0626e-08
48	18591	12.41	1.17954e-08
48	18741	12.51	1.25432e-08
48	18891	12.61	1.29317e-08
48	19041	12.71	1.30184e-08
48	19191	12.81	1.2856e-08
48	19341	12.91	1.24922e-08
48	19495	13.01	1.19698e-08
48	19645	13.11	1.13266e-08
48	19795	13.21	1.05958e-08
48	19945	13.31	9.8062e-09
48	20095	13.41	8.9825e-09
48	20245	13.51	8.14584e-09
48	20395	13.61	7.31326e-09
48	20545	13.71	6.49916e-09
48	20695	13.81	5.71472e-09
48	20845	13.91	4.96883e-09
48	20999	14.01	4.2677e-09
48	21149	14.11	3.61595e-09
48	21299	14.21	3.01661e-09
48	21449	14.31	2.47073e-09
48	21599	14.41	1.97868e-09
48	21749	14.51	1.53939e-09
48	21899	14.61	1.15161e-09
48	22049	14.71	8.12683e-10
48	22199	14.81	5.20117e-10
48	22349	14.91	2.70717e-10
48	22503	15.01	6.12843e-11
48	22653	15.11	-1.11555e-10
48	22803	15.21	-2.51354e-10
48	22953	15.31	-3.61489e-10
48	23103	15.41	-4.4551e-10
48	23253	15.51	-5.06262e-10
48	23403	15.61	-5.47118e-10
48	23553	15.71	-5.70921e-10
48	23703	15.81	-5.79981e-10
48	23853	15.91	-5.77138e-10
48	24007	16.01	-5.64526e-10
48	24157	16.11	-5.4392e-10
48	24307	16.21	-5.17453e-10
48	24457	16.31	-4.86367e-10
48	24607	16.41	-4.52083e-10
48	24757	16.51	-4.15845e-10
48	24907	16.61	-3.78719e-10
48	25057	16.71	-3.41416e-10
48	25207	16.81	-3.04823e-10
48	25357	16.91	-2.69296e-10
48	25511	17.01	-2.35367e-10
48	25661	17.11	-2.03215e-10
48	25811	17.21	-1.73195e-10
48	25961	17.31	-1.45484e-10
48	26111	17.41	-1.20259e-10
48	26261	17.51	-9.71667e-11
48	26411	17.61	-7.6561e-11
48	26561	17.71	-5.82645e-11
48	26711	17.81	-4.22773e-11
48	26861	17.91	-2.82441e-11
48	27015	18.01	-1.63425e-11
48	27165	18.11	-6.21725e-12
48	27315	18.21	2.13163e-12
48	27465	18.31	9.05942e-12
48	27615	18.41	1.43885e-11
48	27765	18.51	1.86517e-11
48	27915	18.61	2.18492e-11
48	28065	18.71	2.39808e-11
48	28215	18.81	2.54019e-11
48	28365	18.91	2.59348e-11
48	28519	19.01	2.61124e-11
48	28669	19.11	2.55795e-11
48	28819	19.21	2.4869e-11
48	28969	19.31	2.38032e-11
48	29119	19.41	2.23821e-11
48	29269	19.51	2.0961e-11
48	29419	19.61	1.93623e-11
48	29569	19.71	1.77636e-11
48	29719	19.81	1.61648e-11
48	29869	19.91	1.45661e-11
48	30023	20.01	1.27898e-11
48	30173	20.11	1.1191e-11
48	30323	20.21	9.76996e-12
48	30473	20.31	8.34888e-12
48	30623	20.41	7.10543e-12
48	30773	20.51	6.03961e-12
48	30923	20.61	4.9738e-12
48	31073	20.71	4.08562e-12
48	31223	20.81	3.37508e-12
48	31373	20.91	2.66454e-12
48	31527	21.01	1.95399e-12
48	31677	21.11	1.24345e-12
48	31827	21.21	7.10543e-13
48	31977	21.31	1.77636e-13
48	32127	21.41	-1.77636e-13
48	32277	21.51	-5.32907e-13
48	32427	21.61	-8.88178e-13
48	32577	21.71	-1.24345e-12
48	32727	21.81	-1.59872e-12
48	32877	21.91	-1.95399e-12
48	33031	22.01	-2.13163e-12
48	33181	22.11	-2.30926e-12
48	33331	22.21	-2.4869e-12
48	33481	22.31	-2.66454e-12
48	33631	22.41	-2.84217e-12
48	33781	22.51	-3.01981e-12
48	33931	22.61	-3.19744e-12
48	34081	22.71	-3.37508e-12
48	34231	22.81	-3.37508e-12
48	34381	22.91	-3.55271e-12
48	34535	23.01	-3.55271e-12
48	34685	23.11	-3.73035e-12
48	34835	23.21	-3.73035e-12
48	34985	23.31	-3.73035e-12
48	35135	23.41	-3.90799e-12
48	35285	23.51	-3.90799e-12
48	35435	23.61	-3.90799e-12
48	35585	23.71	-4.08562e-12
48	35735	23.81	-4.08562e-12
48	35885	23.91	-4.08562e-12
48	36039	24.01	-4.08562e-12
48	36189	24.11	-4.08562e-12
48	36339	24.21	-4.26326e-12
48	36489	24.31	-4.26326e-12
48	36639	24.41	-4.26326e-12
48	36789	24.51	-4.26326e-12
48	36939	24.61	-4.26326e-12
48	37089	24.71	-4.26326e-12
48	37239	24.81	-4.26326e-12
48	37389	24.91	-4.26326e-12
48	37543	25.01	-4.26326e-12
48	37693	25.11	-4.26326e-12
48	37843	25.21	-4.44089e-12
48	37993	25.31	-4.44089e-12
48	38143	25.41	-4.44089e-12
48	38293	25.51	-4.44089e-12
48	38443	25.61	-4.44089e-12
48	38593	25.71	-4.44089e-12
48	38743	25.81	-4.44089e-12
48	38893	25.91	-4.44089e-12
48	39047	26.01	-4.44089e-12
48	39197	26.11	-4.44089e-12
48	39347	26.21	-4.44089e-12
48	39497	26.31	-4.44089e-12
48	39647	26.41	-4.44089e-12
48	39797	26.51	-4.44089e-12
48	39947	26.61	-4.44089e-12
48	40097	26.71	-4.44089e-12
48	40247	26.81	-4.44089e-12
48	40397	26.91	-4.44089e-12
48	40551	27.01	-4.44089e-12
48	40701	27.11	-4.44089e-12
48	40851	27.21	-4.44089e-12
48	41001	27.31	-4.44089e-12
48	41151	27.41	-4.44089e-12
48	41301	27.51	-4.44089e-12
48	41451	27.61	-4.44089e-12
48	41601	27.71	-4.44089e-12
48	41751	27.81	-4.44089e-12
48	41901	27.91	-4.44089e-12
48	42055	28.01	-4.44089e-12
48	42205	28.11	-4.44089e-12
48	42355	28.21	-4.44089e-12
48	42505	28.31	-4.44089e-12
48	42655	28.41	-4.44089e-12
48	42805	28.51	-4.44089e-12
48	42955	28.61	-4.44089e-12
48	43105	28.71	-4.44089e-12
48	43255	28.81	-4.44089e-12
48	43405	28.91	-4.44089e-12
48	43559	29.01	-4.44089e-12
48	43709	29.11	-4.44089e-12
48	43859	29.21	-4.44089e-12
48	44009	29.31	-4.44089e-12
48	44159	29.41	-4.44089e-12
48	44309	29.51	-4.44089e-12
48	44459	29.61	-4.44089e-12
48	44609	29.71	-4.44089e-12
48	44759	29.81	-4.44089e-12
48	44909	29.91	-4.44089e-12
48	45063	30.01	-4.44089e-12
48	45213	30.11	-4.44089e-12
48	45363	30.21	-4.44089e-12
48	45513	30.31	-4.44089e-12
48	45663	30.41	-4.44089e-12
48	45813	30.51	-4.44089e-12
48	45963	30.61	-4.44089e-12
48	46113	30.71	-4.44089e-12
48	46263	30.81	-4.44089e-12
48	46413	30.91	-4.44089e-12
48	46567	31.01	-4.44089e-12
48	46717	31.11	-4.44089e-12
48	46867	31.21	-4.44089e-12
48	47017	31.31	-4.44089e-12
48	47167	31.41	-4.44089e-12
48	47317	31.51	-4.44089e-12
48	47467	31.61	-4.44089e-12
48	47617	31.71	-4.44089e-12
48	47767	31.81	-4.44089e-12
48	47917	31.91	-4.44089e-12
48	48071	32.01	-4.44089e-12
48	48221	32.11	-4.44089e-12
48	48371	32.21	-4.44089e-12
48	48521	32.31	-4.44089e-12
48	48671	32.41	-4.44089e-12
48	48821	32.51	-4.44089e-12
48	48971	32.61	-4.44089e-12
48	49121	32.71	-4.44089e-12
48	49271	32.81	-4.44089e-12
48	49421	32.91	-4.44089e-12
48	49575	33.01	-4.44089e-12
48	49725	33.11	-4.44089e-12
48	49875	33.21	-4.44089e-12
48	50025	33.31	-4.44089e-12
47	26	0.21	0.000537287
47	176	0.31	0.00102256
47	326	0.41	0.0014023
47	476	0.51	0.00168868
47	626	0.61	0.00189332
47	776	0.71	0.00202724
47	926	0.81	0.00210073
47	1076	0.91	0.00212335
47	1230	1.01	0.00210382
47	1381	1.11	0.00205006
47	1532	1.21	0.00196919
47	1683	1.31	0.00186754
47	2046	1.41	0.00175064
47	2196	1.51	0.00162335
47	2346	1.61	0.00148981
47	2496	1.71	0.00135354
47	2646	1.81	0.00121748
47	2796	1.91	0.00108402
47	2950	2.01	0.000955094
47	3100	2.11	0.0008322
47	3250	2.21	0.000716459
47	3400	2.31	0.00060866
47	3550	2.41	0.00050931
47	3700	2.51	0.000418674
47	3850	2.61	0.000336812
47	4000	2.71	0.000263615
47	4150	2.81	0.00019884
47	4300	2.91	0.000142136
47	4454	3.01	9.30689e-05
47	4604	3.11	5.11479e-05
47	4754	3.21	1.58407e-05
47	4904	3.31	-1.34077e-05
47	5054	3.41	-3.7161e-05
47	5204	3.51	-5.59805e-05
47	5354	3.61	-7.0415e-05
47	5504	3.71	-8.09934e-05
47	5654	3.81	-8.82186e-05
47	5804	3.91	-9.25636e-05
47	5958	4.01	-9.44677e-05
47	6108	4.11	-9.43354e-05
47	6258	4.21	-9.25349e-05
47	6408	4.31	-8.93982e-05
47	6558	4.41	-8.52216e-05
47	6708	4.51	-8.02667e-05
47	6858	4.61	-7.47624e-05
47	7008	4.71	-6.8906e-05
47	7158	4.81	-6.28658e-05
47	7308	4.91	-5.67832e-05
47	7462	5.01	-5.07749e-05
47	7612	5.11	-4.49353e-05
47	7762	5.21	-3.93389e-05
47	7912	5.31	-3.40422e-05
47	8062	5.41	-2.90866e-05
47	8212	5.51	-2.44995e-05
47	8362	5.61	-2.02971e-05
47	8512	5.71	-1.64857e-05
47	8662	5.81	-1.30632e-05
47	8812	5.91	-1.00213e-05
47	8966	6.01	-7.34621e-06
47	9116	6.11	-5.0199e-06
47	9266	6.21	-3.02148e-06
47	9416	6.31	-1.32788e-06
47	9566	6.41	8.52683e-08
47	9716	6.51	1.24302e-06
47	9866	6.61	2.17048e-06
47	10016	6.71	2.89239e-06
47	10166	6.81	3.43273e-06
47	10316	6.91	3.81443e-06
47	10470	7.01	4.05915e-06
47	10620	7.11	4.18709e-06
47	10770	7.21	4.21695e-06
47	10920	7.31	4.16581e-06
47	11070	7.41	4.04914e-06
47	11220	7.51	3.88081e-06
47	11370	7.61	3.67311e-06
47	11520	7.71	3.43684e-06
47	11670	7.81	3.18138e-06
47	11820	7.91	2.91475e-06
47	11974	8.01	2.64375e-06
47	12124	8.11	2.37401e-06
47	12274	8.21	2.11015e-06
47	12424	8.31	1.85584e-06
47	12574	8.41	1.61394e-06
47	12724	8.51	1.38655e-06
47	12874	8.61	1.17514e-06
47	13024	8.71	9.8063e-07
47	13174	8.81	8.03478e-07
47	13324	8.91	6.43741e-07
47	13478	9.01	5.01155e-07
47	13628	9.11	3.75196e-07
47	13778	9.21	2.65136e-07
47	13928	9.31	1.70093e-07
47	14078	9.41	8.90738e-08
47	14228	9.51	2.10125e-08
47	14378	9.61	-3.51985e-08
47	14528	9.71	-8.06798e-08
47	14678	9.81	-1.16543e-07
47	14828	9.91	-1.43873e-07
47	14982	10.01	-1.63713e-07
47	15132	10.11	-1.77052e-07
47	15282	10.21	-1.84819e-07
47	15432	10.31	-1.87876e-07
47	15582	10.41	-1.87014e-07
47	15732	10.51	-1.82953e-07
47	15882	10.61	-1.76339e-07
47	16032	10.71	-1.67752e-07
47	16182	10.81	-1.57698e-07
47	16332	10.91	-1.46622e-07
47	16486	11.01	-1.34906e-07
47	16636	11.11	-1.22875e-07
47	16786	11.21	-1.10801e-07
47	16936	11.31	-9.89095e-08
47	17087	11.41	-8.73802e-08
47	17237	11.51	-7.63549e-08
47	17387	11.61	-6.59407e-08
47	17537	11.71	-5.62148e-08
47	17687	11.81	-4.72278e-08
47	17837	11.91	-3.90086e-08
47	17991	12.01	-3.15662e-08
47	18141	12.11	-2.48946e-08
47	18291	12.21	-1.89752e-08
47	18441	12.31	-1.37788e-08
47	18591	12.41	-9.26885e-09
47	18741	12.51	-5.40279e-09
47	18891	12.61	-2.13447e-09
47	19041	12.71	5.84954e-10
47	19191	12.81	2.8054e-09
47	19341	12.91	4.57643e-09
47	19495	13.01	5.94724e-09
47	19645	13.11	6.9651e-09
47	19795	13.21	7.67546e-09
47	19945	13.31	8.12062e-09
47	20095	13.41	8.33964e-09
47	20245	13.51	8.37019e-09
47	20395	13.61	8.24496e-09
47	20545	13.71	7.99414e-09
47	20695	13.81	7.64526e-09
47	20845	13.91	7.22178e-09
47	20999	14.01	6.74483e-09
47	21149	14.11	6.2327e-09
47	21299	14.21	5.70068e-09
47	21449	14.31	5.16245e-09
47	21599	14.41	4.62794e-09
47	21749	14.51	4.10658e-09
47	21899	14.61	3.60512e-09
47	22049	14.71	3.12923e-09
47	22199	14.81	2.68283e-09
47	22349	14.91	2.26823e-09
47	22503	15.01	1.88756e-09
47	22653	15.11	1.54117e-09
47	22803	15.21	1.22959e-09
47	22953	15.31	9.5195e-10
47	23103	15.41	7.0699e-10
47	23253	15.51	4.93472e-10
47	23403	15.61	3.09441e-10
47	23553	15.71	1.52944e-10
47	23703	15.81	2.18492e-11
47	23853	15.91	-8.59757e-11
47	24007	16.01	-1.73017e-10
47	24157	16.11	-2.41407e-10
47	24307	16.21	-2.93099e-10
47	24457	16.31	-3.30402e-10
47	24607	16.41	-3.54916e-10
47	24757	16.51	-3.68594e-10
47	24907	16.61	-3.73213e-10
47	25057	16.71	-3.7037e-10
47	25207	16.81	-3.61311e-10
47	25357	16.91	-3.47455e-10
47	25511	17.01	-3.29869e-10
47	25661	17.11	-3.09441e-10
47	25811	17.21	-2.87237e-10
47	25961	17.31	-2.64144e-10
47	26111	17.41	-2.40163e-10
47	26261	17.51	-2.16716e-10
47	26411	17.61	-1.93623e-10
47	26561	17.71	-1.7053e-10
47	26711	17.81	-1.48859e-10
47	26861	17.91	-1.28253e-10
47	27015	18.01	-1.08891e-10
47	27165	18.11	-9.11271e-11
47	27315	18.21	-7.51399e-11
47	27465	18.31	-6.05738e-11
47	27615	18.41	-4.76064e-11
47	27765	18.51	-3.606e-11
47	27915	18.61	-2.57572e-11
47	28065	18.71	-1.68754e-11
47	28215	18.81	-9.59233e-12
47	28365	18.91	-3.19744e-12
47	28519	19.01	2.13163e-12
47	28669	19.11	6.21725e-12
47	28819	19.21	9.76996e-12
47	28969	19.31	1.22569e-11
47	29119	19.41	1.40332e-11
47	29269	19.51	1.58096e-11
47	29419	19.61	1.61648e-11
47	29569	19.71	1.61648e-11
47	29719	19.81	1.61648e-11
47	29869	19.91	1.61648e-11
47	30023	20.01	1.61648e-11
47	30173	20.11	1.56319e-11
47	30323	20.21	1.42109e-11
47	30473	20.31	1.27898e-11
47	30623	20.41	1.15463e-11
47	30773	20.51	1.04805e-11
47	30923	20.61	9.41469e-12
47	31073	20.71	8.52651e-12
47	31223	20.81	7.81597e-12
47	31373	20.91	7.10543e-12
47	31527	21.01	6.39488e-12
47	31677	21.11	5.68434e-12
47	31827	21.21	5.15143e-12
47	31977	21.31	4.61853e-12
47	32127	21.41	4.26326e-12
47	32277	21.51	3.90799e-12
47	32427	21.61	3.55271e-12
47	32577	21.71	3.19744e-12
47	32727	21.81	2.84217e-12
47	32877	21.91	2.4869e-12
47	33031	22.01	2.30926e-12
47	33181	22.11	2.13163e-12
47	33331	22.21	1.95399e-12
47	33481	22.31	1.77636e-12
47	33631	22.41	1.59872e-12
47	33781	22.51	1.42109e-12
47	33931	22.61	1.24345e-12
47	34081	22.71	1.06581e-12
47	34231	22.81	1.06581e-12
47	34381	22.91	8.88178e-13
47	34535	23.01	8.88178e-13
47	34685	23.11	7.10543e-13
47	34835	23.21	7.10543e-13
47	34985	23.31	7.10543e-13
47	35135	23.41	5.32907e-13
47	35285	23.51	5.32907e-13
47	35435	23.61	5.32907e-13
47	35585	23.71	3.55271e-13
47	35735	23.81	3.55271e-13
47	35885	23.91	3.55271e-13
47	36039	24.01	3.55271e-13
47	36189	24.11	3.55271e-13
47	36339	24.21	1.77636e-13
47	36489	24.31	1.77636e-13
47	36639	24.41	1.77636e-13
47	36789	24.51	1.77636e-13
47	36939	24.61	1.77636e-13
47	37089	24.71	1.77636e-13
47	37239	24.81	1.77636e-13
47	37389	24.91	1.77636e-13
47	37543	25.01	1.77636e-13
47	37693	25.11	1.77636e-13
47	37843	25.21	0
47	37993	25.31	0
47	38143	25.41	0
47	38293	25.51	0
47	38443	25.61	0
47	38593	25.71	0
47	38743	25.81	0
47	38893	25.91	0
47	39047	26.01	0
47	39197	26.11	0
47	39347	26.21	0
47	39497	26.31	0
47	39647	26.41	0
47	39797	26.51	0
47	39947	26.61	0
47	40097	26.71	0
47	40247	26.81	0
47	40397	26.91	0
47	40551	27.01	0
47	40701	27.11	0
47	40851	27.21	0
47	41001	27.31	0
47	41151	27.41	0
47	41301	27.51	0
47	41451	27.61	0
47	41601	27.71	0
47	41751	27.81	0
47	41901	27.91	0
47	42055	28.01	0
47	42205	28.11	0
47	42355	28.21	0
47	42505	28.31	0
47	42655	28.41	0
47	42805	28.51	0
47	42955	28.61	0
47	43105	28.71	0
47	43255	28.81	0
47	43405	28.91	0
47	43559	29.01	0
47	43709	29.11	0
47	43859	29.21	0
47	44009	29.31	0
47	44159	29.41	0
47	44309	29.51	0
47	44459	29.61	0
47	44609	29.71	0
47	44759	29.81	0
47	44909	29.91	0
47	45063	30.01	0
47	45213	30.11	0
47	45363	30.21	0
47	45513	30.31	0
47	45663	30.41	0
47	45813	30.51	0
47	45963	30.61	0
47	46113	30.71	0
47	46263	30.81	0
47	46413	30.91	0
47	46567	31.01	0
47	46717	31.11	0
47	46867	31.21	0
47	47017	31.31	0
47	47167	31.41	0
47	47317	31.51	0
47	47467	31.61	0
47	47617	31.71	0
47	47767	31.81	0
47	47917	31.91	0
47	48071	32.01	0
47	48221	32.11	0
47	48371	32.21	0
47	48521	32.31	0
47	48671	32.41	0
47	48821	32.51	0
47	48971	32.61	0
47	49121	32.71	0
47	49271	32.81	0
47	49421	32.91	0
47	49575	33.01	0
47	49725	33.11	0
47	49875	33.21	0
47	50025	33.31	0
51	26	0.21	1.6
51	176	0.31	1.6
51	326	0.41	1.6
51	476	0.51	1.6
51	626	0.61	1.6
51	776	0.71	1.6
51	926	0.81	1.6
51	1076	0.91	1.6
51	1230	1.01	1.6
51	1381	1.11	1.6
51	1532	1.21	1.6
51	1683	1.31	1.6
51	2046	1.41	1.6
51	2196	1.51	1.6
51	2346	1.61	1.6
51	2496	1.71	1.6
51	2646	1.81	1.6
51	2796	1.91	1.6
51	2950	2.01	1.6
51	3100	2.11	1.6
51	3250	2.21	1.6
51	3400	2.31	1.6
51	3550	2.41	1.6
51	3700	2.51	1.6
51	3850	2.61	1.6
51	4000	2.71	1.6
51	4150	2.81	1.6
51	4300	2.91	1.6
51	4454	3.01	1.6
51	4604	3.11	1.6
51	4754	3.21	1.6
51	4904	3.31	1.6
51	5054	3.41	1.6
51	5204	3.51	1.6
51	5354	3.61	1.6
51	5504	3.71	1.6
51	5654	3.81	1.6
51	5804	3.91	1.6
51	5958	4.01	1.6
51	6108	4.11	1.6
51	6258	4.21	1.6
51	6408	4.31	1.6
51	6558	4.41	1.6
51	6708	4.51	1.6
51	6858	4.61	1.6
51	7008	4.71	1.6
51	7158	4.81	1.6
51	7308	4.91	1.6
51	7462	5.01	1.6
51	7612	5.11	1.6
51	7762	5.21	1.6
51	7912	5.31	1.6
51	8062	5.41	1.6
51	8212	5.51	1.6
51	8362	5.61	1.6
51	8512	5.71	1.6
51	8662	5.81	1.6
51	8812	5.91	1.6
51	8966	6.01	1.6
51	9116	6.11	1.6
51	9266	6.21	1.6
51	9416	6.31	1.6
51	9566	6.41	1.6
51	9716	6.51	1.6
51	9866	6.61	1.6
51	10016	6.71	1.6
51	10166	6.81	1.6
51	10316	6.91	1.6
51	10470	7.01	1.6
51	10620	7.11	1.6
51	10770	7.21	1.6
51	10920	7.31	1.6
51	11070	7.41	1.6
51	11220	7.51	1.6
51	11370	7.61	1.6
51	11520	7.71	1.6
51	11670	7.81	1.6
51	11820	7.91	1.6
51	11974	8.01	1.6
51	12124	8.11	1.6
51	12274	8.21	1.6
51	12424	8.31	1.6
51	12574	8.41	1.6
51	12724	8.51	1.6
51	12874	8.61	1.6
51	13024	8.71	1.6
51	13174	8.81	1.6
51	13324	8.91	1.6
51	13478	9.01	1.6
51	13628	9.11	1.6
51	13778	9.21	1.6
51	13928	9.31	1.6
51	14078	9.41	1.6
51	14228	9.51	1.6
51	14378	9.61	1.6
51	14528	9.71	1.6
51	14678	9.81	1.6
51	14828	9.91	1.6
51	14982	10.01	1.6
51	15132	10.11	1.6
51	15282	10.21	1.6
51	15432	10.31	1.6
51	15582	10.41	1.6
51	15732	10.51	1.6
51	15882	10.61	1.6
51	16032	10.71	1.6
51	16182	10.81	1.6
51	16332	10.91	1.6
51	16486	11.01	1.6
51	16636	11.11	1.6
51	16786	11.21	1.6
51	16936	11.31	1.6
51	17087	11.41	1.6
51	17237	11.51	1.6
51	17387	11.61	1.6
51	17537	11.71	1.6
51	17687	11.81	1.6
51	17837	11.91	1.6
51	17991	12.01	1.6
51	18141	12.11	1.6
51	18291	12.21	1.6
51	18441	12.31	1.6
51	18591	12.41	1.6
51	18741	12.51	1.6
51	18891	12.61	1.6
51	19041	12.71	1.6
51	19191	12.81	1.6
51	19341	12.91	1.6
51	19495	13.01	1.6
51	19645	13.11	1.6
51	19795	13.21	1.6
51	19945	13.31	1.6
51	20095	13.41	1.6
51	20245	13.51	1.6
51	20395	13.61	1.6
51	20545	13.71	1.6
51	20695	13.81	1.6
51	20845	13.91	1.6
51	20999	14.01	1.6
51	21149	14.11	1.6
51	21299	14.21	1.6
51	21449	14.31	1.6
51	21599	14.41	1.6
51	21749	14.51	1.6
51	21899	14.61	1.6
51	22049	14.71	1.6
51	22199	14.81	1.6
51	22349	14.91	1.6
51	22503	15.01	1.6
51	22653	15.11	1.6
51	22803	15.21	1.6
51	22953	15.31	1.6
51	23103	15.41	1.6
51	23253	15.51	1.6
51	23403	15.61	1.6
51	23553	15.71	1.6
51	23703	15.81	1.6
51	23853	15.91	1.6
51	24007	16.01	1.6
51	24157	16.11	1.6
51	24307	16.21	1.6
51	24457	16.31	1.6
51	24607	16.41	1.6
51	24757	16.51	1.6
51	24907	16.61	1.6
51	25057	16.71	1.6
51	25207	16.81	1.6
51	25357	16.91	1.6
51	25511	17.01	1.6
51	25661	17.11	1.6
51	25811	17.21	1.6
51	25961	17.31	1.6
51	26111	17.41	1.6
51	26261	17.51	1.6
51	26411	17.61	1.6
51	26561	17.71	1.6
51	26711	17.81	1.6
51	26861	17.91	1.6
51	27015	18.01	1.6
51	27165	18.11	1.6
51	27315	18.21	1.6
51	27465	18.31	1.6
51	27615	18.41	1.6
51	27765	18.51	1.6
51	27915	18.61	1.6
51	28065	18.71	1.6
51	28215	18.81	1.6
51	28365	18.91	1.6
51	28519	19.01	1.6
51	28669	19.11	1.6
51	28819	19.21	1.6
51	28969	19.31	1.6
51	29119	19.41	1.6
51	29269	19.51	1.6
51	29419	19.61	1.6
51	29569	19.71	1.6
51	29719	19.81	1.6
51	29869	19.91	1.6
51	30023	20.01	1.6
51	30173	20.11	1.6
51	30323	20.21	1.6
51	30473	20.31	1.6
51	30623	20.41	1.6
51	30773	20.51	1.6
51	30923	20.61	1.6
51	31073	20.71	1.6
51	31223	20.81	1.6
51	31373	20.91	1.6
51	31527	21.01	1.6
51	31677	21.11	1.6
51	31827	21.21	1.6
51	31977	21.31	1.6
51	32127	21.41	1.6
51	32277	21.51	1.6
51	32427	21.61	1.6
51	32577	21.71	1.6
51	32727	21.81	1.6
51	32877	21.91	1.6
51	33031	22.01	1.6
51	33181	22.11	1.6
51	33331	22.21	1.6
51	33481	22.31	1.6
51	33631	22.41	1.6
51	33781	22.51	1.6
51	33931	22.61	1.6
51	34081	22.71	1.6
51	34231	22.81	1.6
51	34381	22.91	1.6
51	34535	23.01	1.6
51	34685	23.11	1.6
51	34835	23.21	1.6
51	34985	23.31	1.6
51	35135	23.41	1.6
51	35285	23.51	1.6
51	35435	23.61	1.6
51	35585	23.71	1.6
51	35735	23.81	1.6
51	35885	23.91	1.6
51	36039	24.01	1.6
51	36189	24.11	1.6
51	36339	24.21	1.6
51	36489	24.31	1.6
51	36639	24.41	1.6
51	36789	24.51	1.6
51	36939	24.61	1.6
51	37089	24.71	1.6
51	37239	24.81	1.6
51	37389	24.91	1.6
51	37543	25.01	1.6
51	37693	25.11	1.6
51	37843	25.21	1.6
51	37993	25.31	1.6
51	38143	25.41	1.6
51	38293	25.51	1.6
51	38443	25.61	1.6
51	38593	25.71	1.6
51	38743	25.81	1.6
51	38893	25.91	1.6
51	39047	26.01	1.6
51	39197	26.11	1.6
51	39347	26.21	1.6
51	39497	26.31	1.6
51	39647	26.41	1.6
51	39797	26.51	1.6
51	39947	26.61	1.6
51	40097	26.71	1.6
51	40247	26.81	1.6
51	40397	26.91	1.6
51	40551	27.01	1.6
51	40701	27.11	1.6
51	40851	27.21	1.6
51	41001	27.31	1.6
51	41151	27.41	1.6
51	41301	27.51	1.6
51	41451	27.61	1.6
51	41601	27.71	1.6
51	41751	27.81	1.6
51	41901	27.91	1.6
51	42055	28.01	1.6
51	42205	28.11	1.6
51	42355	28.21	1.6
51	42505	28.31	1.6
51	42655	28.41	1.6
51	42805	28.51	1.6
51	42955	28.61	1.6
51	43105	28.71	1.6
51	43255	28.81	1.6
51	43405	28.91	1.6
51	43559	29.01	1.6
51	43709	29.11	1.6
51	43859	29.21	1.6
51	44009	29.31	1.6
51	44159	29.41	1.6
51	44309	29.51	1.6
51	44459	29.61	1.6
51	44609	29.71	1.6
51	44759	29.81	1.6
51	44909	29.91	1.6
51	45063	30.01	1.6
51	45213	30.11	1.6
51	45363	30.21	1.6
51	45513	30.31	1.6
51	45663	30.41	1.6
51	45813	30.51	1.6
51	45963	30.61	1.6
51	46113	30.71	1.6
51	46263	30.81	1.6
51	46413	30.91	1.6
51	46567	31.01	1.6
51	46717	31.11	1.6
51	46867	31.21	1.6
51	47017	31.31	1.6
51	47167	31.41	1.6
51	47317	31.51	1.6
51	47467	31.61	1.6
51	47617	31.71	1.6
51	47767	31.81	1.6
51	47917	31.91	1.6
51	48071	32.01	1.6
51	48221	32.11	1.6
51	48371	32.21	1.6
51	48521	32.31	1.6
51	48671	32.41	1.6
51	48821	32.51	1.6
51	48971	32.61	1.6
51	49121	32.71	1.6
51	49271	32.81	1.6
51	49421	32.91	1.6
51	49575	33.01	1.6
51	49725	33.11	1.6
51	49875	33.21	1.6
51	50025	33.31	1.6
50	26	0.21	524.575
50	176	0.31	522.992
50	326	0.41	521.409
50	476	0.51	519.826
50	626	0.61	518.243
50	776	0.71	516.66
50	926	0.81	515.077
50	1076	0.91	513.494
50	1230	1.01	511.911
50	1381	1.11	510.328
50	1532	1.21	508.744
50	1683	1.31	507.161
50	2046	1.41	505.578
50	2196	1.51	503.995
50	2346	1.61	502.412
50	2496	1.71	500.828
50	2646	1.81	499.245
50	2796	1.91	497.662
50	2950	2.01	496.079
50	3100	2.11	494.495
50	3250	2.21	492.912
50	3400	2.31	491.329
50	3550	2.41	489.745
50	3700	2.51	488.162
50	3850	2.61	486.579
50	4000	2.71	484.995
50	4150	2.81	483.412
50	4300	2.91	481.829
50	4454	3.01	480.245
50	4604	3.11	478.662
50	4754	3.21	477.079
50	4904	3.31	475.495
50	5054	3.41	473.912
50	5204	3.51	472.329
50	5354	3.61	470.745
50	5504	3.71	469.162
50	5654	3.81	467.578
50	5804	3.91	465.995
50	5958	4.01	464.412
50	6108	4.11	462.828
50	6258	4.21	461.245
50	6408	4.31	459.662
50	6558	4.41	458.078
50	6708	4.51	456.495
50	6858	4.61	454.912
50	7008	4.71	453.328
50	7158	4.81	451.745
50	7308	4.91	450.162
50	7462	5.01	448.578
50	7612	5.11	446.995
50	7762	5.21	445.412
50	7912	5.31	443.828
50	8062	5.41	442.245
50	8212	5.51	440.662
50	8362	5.61	439.078
50	8512	5.71	437.495
50	8662	5.81	435.912
50	8812	5.91	434.328
50	8966	6.01	432.745
50	9116	6.11	431.162
50	9266	6.21	429.578
50	9416	6.31	427.995
50	9566	6.41	426.412
50	9716	6.51	424.828
50	9866	6.61	423.245
50	10016	6.71	421.662
50	10166	6.81	420.079
50	10316	6.91	418.495
50	10470	7.01	416.912
50	10620	7.11	415.329
50	10770	7.21	413.745
50	10920	7.31	412.162
50	11070	7.41	410.579
50	11220	7.51	408.995
50	11370	7.61	407.412
50	11520	7.71	405.829
50	11670	7.81	404.245
50	11820	7.91	402.662
50	11974	8.01	401.079
50	12124	8.11	399.495
50	12274	8.21	397.912
50	12424	8.31	396.329
50	12574	8.41	394.745
50	12724	8.51	393.162
50	12874	8.61	391.579
50	13024	8.71	389.995
50	13174	8.81	388.412
50	13324	8.91	386.829
50	13478	9.01	385.245
50	13628	9.11	383.662
50	13778	9.21	382.079
50	13928	9.31	380.495
50	14078	9.41	378.912
50	14228	9.51	377.329
50	14378	9.61	375.745
50	14528	9.71	374.162
50	14678	9.81	372.579
50	14828	9.91	370.995
50	14982	10.01	369.412
50	15132	10.11	367.829
50	15282	10.21	366.245
50	15432	10.31	364.662
50	15582	10.41	363.079
50	15732	10.51	361.495
50	15882	10.61	359.912
50	16032	10.71	358.329
50	16182	10.81	356.745
50	16332	10.91	355.162
50	16486	11.01	353.579
50	16636	11.11	351.995
50	16786	11.21	350.412
50	16936	11.31	348.829
50	17087	11.41	347.245
50	17237	11.51	345.662
50	17387	11.61	344.079
50	17537	11.71	342.495
50	17687	11.81	340.912
50	17837	11.91	339.329
50	17991	12.01	337.745
50	18141	12.11	336.162
50	18291	12.21	334.579
50	18441	12.31	332.995
50	18591	12.41	331.412
50	18741	12.51	329.829
50	18891	12.61	328.245
50	19041	12.71	326.662
50	19191	12.81	325.079
50	19341	12.91	323.495
50	19495	13.01	321.912
50	19645	13.11	320.329
50	19795	13.21	318.745
50	19945	13.31	317.162
50	20095	13.41	315.579
50	20245	13.51	313.995
50	20395	13.61	312.412
50	20545	13.71	310.829
50	20695	13.81	309.245
50	20845	13.91	307.662
50	20999	14.01	306.079
50	21149	14.11	304.495
50	21299	14.21	302.912
50	21449	14.31	301.329
50	21599	14.41	299.745
50	21749	14.51	298.162
50	21899	14.61	296.579
50	22049	14.71	294.995
50	22199	14.81	293.412
50	22349	14.91	291.829
50	22503	15.01	290.245
50	22653	15.11	288.662
50	22803	15.21	287.079
50	22953	15.31	285.495
50	23103	15.41	283.912
50	23253	15.51	282.329
50	23403	15.61	280.745
50	23553	15.71	279.162
50	23703	15.81	277.579
50	23853	15.91	275.995
50	24007	16.01	274.412
50	24157	16.11	272.829
50	24307	16.21	271.245
50	24457	16.31	269.662
50	24607	16.41	268.079
50	24757	16.51	266.495
50	24907	16.61	264.912
50	25057	16.71	263.329
50	25207	16.81	261.746
50	25357	16.91	260.162
50	25511	17.01	258.579
50	25661	17.11	256.996
50	25811	17.21	255.412
50	25961	17.31	253.829
50	26111	17.41	252.246
50	26261	17.51	250.662
50	26411	17.61	249.079
50	26561	17.71	247.496
50	26711	17.81	245.912
50	26861	17.91	244.329
50	27015	18.01	242.746
50	27165	18.11	241.162
50	27315	18.21	239.579
50	27465	18.31	237.996
50	27615	18.41	236.412
50	27765	18.51	234.829
50	27915	18.61	233.246
50	28065	18.71	231.662
50	28215	18.81	230.079
50	28365	18.91	228.496
50	28519	19.01	226.912
50	28669	19.11	225.329
50	28819	19.21	223.746
50	28969	19.31	222.162
50	29119	19.41	220.579
50	29269	19.51	218.996
50	29419	19.61	217.412
50	29569	19.71	215.829
50	29719	19.81	214.246
50	29869	19.91	212.662
50	30023	20.01	211.079
50	30173	20.11	209.496
50	30323	20.21	207.912
50	30473	20.31	206.329
50	30623	20.41	204.746
50	30773	20.51	203.162
50	30923	20.61	201.579
50	31073	20.71	199.996
50	31223	20.81	198.412
50	31373	20.91	196.829
50	31527	21.01	195.246
50	31677	21.11	193.662
50	31827	21.21	192.079
50	31977	21.31	190.496
50	32127	21.41	188.912
50	32277	21.51	187.329
50	32427	21.61	185.746
50	32577	21.71	184.162
50	32727	21.81	182.579
50	32877	21.91	180.996
50	33031	22.01	179.412
50	33181	22.11	177.829
50	33331	22.21	176.246
50	33481	22.31	174.662
50	33631	22.41	173.079
50	33781	22.51	171.496
50	33931	22.61	169.912
50	34081	22.71	168.329
50	34231	22.81	166.746
50	34381	22.91	165.162
50	34535	23.01	163.579
50	34685	23.11	161.996
50	34835	23.21	160.412
50	34985	23.31	158.829
50	35135	23.41	157.246
50	35285	23.51	155.662
50	35435	23.61	154.079
50	35585	23.71	152.496
50	35735	23.81	150.912
50	35885	23.91	149.329
50	36039	24.01	147.746
50	36189	24.11	146.162
50	36339	24.21	144.579
50	36489	24.31	142.996
50	36639	24.41	141.412
50	36789	24.51	139.829
50	36939	24.61	138.246
50	37089	24.71	136.662
50	37239	24.81	135.079
50	37389	24.91	133.496
50	37543	25.01	131.912
50	37693	25.11	130.329
50	37843	25.21	128.746
50	37993	25.31	127.162
50	38143	25.41	125.579
50	38293	25.51	123.996
50	38443	25.61	122.412
50	38593	25.71	120.829
50	38743	25.81	119.246
50	38893	25.91	117.662
50	39047	26.01	116.079
50	39197	26.11	114.496
50	39347	26.21	112.912
50	39497	26.31	111.329
50	39647	26.41	109.746
50	39797	26.51	108.162
50	39947	26.61	106.579
50	40097	26.71	104.996
50	40247	26.81	103.413
50	40397	26.91	101.829
50	40551	27.01	100.246
50	40701	27.11	98.6625
50	40851	27.21	97.0792
50	41001	27.31	95.4959
50	41151	27.41	93.9125
50	41301	27.51	92.3292
50	41451	27.61	90.7459
50	41601	27.71	89.1625
50	41751	27.81	87.5792
50	41901	27.91	85.9959
50	42055	28.01	84.4125
50	42205	28.11	82.8292
50	42355	28.21	81.2459
50	42505	28.31	79.6626
50	42655	28.41	78.0792
50	42805	28.51	76.4959
50	42955	28.61	74.9126
50	43105	28.71	73.3292
50	43255	28.81	71.7459
50	43405	28.91	70.1626
50	43559	29.01	68.5792
50	43709	29.11	66.9959
50	43859	29.21	65.4126
50	44009	29.31	63.8293
50	44159	29.41	62.2459
50	44309	29.51	60.6626
50	44459	29.61	59.0793
50	44609	29.71	57.4959
50	44759	29.81	55.9126
50	44909	29.91	54.3293
50	45063	30.01	52.7459
50	45213	30.11	51.1626
50	45363	30.21	49.5793
50	45513	30.31	47.996
50	45663	30.41	46.4126
50	45813	30.51	44.8293
50	45963	30.61	43.246
50	46113	30.71	41.6626
50	46263	30.81	40.0793
50	46413	30.91	38.496
50	46567	31.01	36.9126
50	46717	31.11	35.3293
50	46867	31.21	33.746
50	47017	31.31	32.1627
50	47167	31.41	30.5793
50	47317	31.51	28.996
50	47467	31.61	27.4127
50	47617	31.71	25.8293
50	47767	31.81	24.246
50	47917	31.91	22.6627
50	48071	32.01	21.0793
50	48221	32.11	19.496
50	48371	32.21	17.9127
50	48521	32.31	16.3294
50	48671	32.41	14.746
50	48821	32.51	13.1627
50	48971	32.61	11.5794
50	49121	32.71	9.99604
50	49271	32.81	8.41271
50	49421	32.91	6.82938
50	49575	33.01	5.24605
50	49725	33.11	3.66272
50	49875	33.21	2.07939
50	50025	33.31	0.496056
49	26	0.21	15.83
49	176	0.31	15.8301
49	326	0.41	15.8302
49	476	0.51	15.8304
49	626	0.61	15.8306
49	776	0.71	15.8308
49	926	0.81	15.831
49	1076	0.91	15.8312
49	1230	1.01	15.8314
49	1381	1.11	15.8316
49	1532	1.21	15.8318
49	1683	1.31	15.832
49	2046	1.41	15.8322
49	2196	1.51	15.8323
49	2346	1.61	15.8325
49	2496	1.71	15.8326
49	2646	1.81	15.8328
49	2796	1.91	15.8329
49	2950	2.01	15.833
49	3100	2.11	15.8331
49	3250	2.21	15.8332
49	3400	2.31	15.8332
49	3550	2.41	15.8333
49	3700	2.51	15.8333
49	3850	2.61	15.8334
49	4000	2.71	15.8334
49	4150	2.81	15.8334
49	4300	2.91	15.8334
49	4454	3.01	15.8334
49	4604	3.11	15.8334
49	4754	3.21	15.8334
49	4904	3.31	15.8334
49	5054	3.41	15.8334
49	5204	3.51	15.8334
49	5354	3.61	15.8334
49	5504	3.71	15.8334
49	5654	3.81	15.8334
49	5804	3.91	15.8334
49	5958	4.01	15.8334
49	6108	4.11	15.8334
49	6258	4.21	15.8334
49	6408	4.31	15.8334
49	6558	4.41	15.8334
49	6708	4.51	15.8334
49	6858	4.61	15.8333
49	7008	4.71	15.8333
49	7158	4.81	15.8333
49	7308	4.91	15.8333
49	7462	5.01	15.8333
49	7612	5.11	15.8333
49	7762	5.21	15.8333
49	7912	5.31	15.8333
49	8062	5.41	15.8333
49	8212	5.51	15.8333
49	8362	5.61	15.8333
49	8512	5.71	15.8333
49	8662	5.81	15.8333
49	8812	5.91	15.8333
49	8966	6.01	15.8333
49	9116	6.11	15.8333
49	9266	6.21	15.8333
49	9416	6.31	15.8333
49	9566	6.41	15.8333
49	9716	6.51	15.8333
49	9866	6.61	15.8333
49	10016	6.71	15.8333
49	10166	6.81	15.8333
49	10316	6.91	15.8333
49	10470	7.01	15.8333
49	10620	7.11	15.8333
49	10770	7.21	15.8333
49	10920	7.31	15.8333
49	11070	7.41	15.8333
49	11220	7.51	15.8333
49	11370	7.61	15.8333
49	11520	7.71	15.8333
49	11670	7.81	15.8333
49	11820	7.91	15.8333
49	11974	8.01	15.8333
49	12124	8.11	15.8333
49	12274	8.21	15.8333
49	12424	8.31	15.8333
49	12574	8.41	15.8333
49	12724	8.51	15.8333
49	12874	8.61	15.8333
49	13024	8.71	15.8333
49	13174	8.81	15.8333
49	13324	8.91	15.8333
49	13478	9.01	15.8333
49	13628	9.11	15.8333
49	13778	9.21	15.8333
49	13928	9.31	15.8333
49	14078	9.41	15.8333
49	14228	9.51	15.8333
49	14378	9.61	15.8333
49	14528	9.71	15.8333
49	14678	9.81	15.8333
49	14828	9.91	15.8333
49	14982	10.01	15.8333
49	15132	10.11	15.8333
49	15282	10.21	15.8333
49	15432	10.31	15.8333
49	15582	10.41	15.8333
49	15732	10.51	15.8333
49	15882	10.61	15.8333
49	16032	10.71	15.8333
49	16182	10.81	15.8333
49	16332	10.91	15.8333
49	16486	11.01	15.8333
49	16636	11.11	15.8333
49	16786	11.21	15.8333
49	16936	11.31	15.8333
49	17087	11.41	15.8333
49	17237	11.51	15.8333
49	17387	11.61	15.8333
49	17537	11.71	15.8333
49	17687	11.81	15.8333
49	17837	11.91	15.8333
49	17991	12.01	15.8333
49	18141	12.11	15.8333
49	18291	12.21	15.8333
49	18441	12.31	15.8333
49	18591	12.41	15.8333
49	18741	12.51	15.8333
49	18891	12.61	15.8333
49	19041	12.71	15.8333
49	19191	12.81	15.8333
49	19341	12.91	15.8333
49	19495	13.01	15.8333
49	19645	13.11	15.8333
49	19795	13.21	15.8333
49	19945	13.31	15.8333
49	20095	13.41	15.8333
49	20245	13.51	15.8333
49	20395	13.61	15.8333
49	20545	13.71	15.8333
49	20695	13.81	15.8333
49	20845	13.91	15.8333
49	20999	14.01	15.8333
49	21149	14.11	15.8333
49	21299	14.21	15.8333
49	21449	14.31	15.8333
49	21599	14.41	15.8333
49	21749	14.51	15.8333
49	21899	14.61	15.8333
49	22049	14.71	15.8333
49	22199	14.81	15.8333
49	22349	14.91	15.8333
49	22503	15.01	15.8333
49	22653	15.11	15.8333
49	22803	15.21	15.8333
49	22953	15.31	15.8333
49	23103	15.41	15.8333
49	23253	15.51	15.8333
49	23403	15.61	15.8333
49	23553	15.71	15.8333
49	23703	15.81	15.8333
49	23853	15.91	15.8333
49	24007	16.01	15.8333
49	24157	16.11	15.8333
49	24307	16.21	15.8333
49	24457	16.31	15.8333
49	24607	16.41	15.8333
49	24757	16.51	15.8333
49	24907	16.61	15.8333
49	25057	16.71	15.8333
49	25207	16.81	15.8333
49	25357	16.91	15.8333
49	25511	17.01	15.8333
49	25661	17.11	15.8333
49	25811	17.21	15.8333
49	25961	17.31	15.8333
49	26111	17.41	15.8333
49	26261	17.51	15.8333
49	26411	17.61	15.8333
49	26561	17.71	15.8333
49	26711	17.81	15.8333
49	26861	17.91	15.8333
49	27015	18.01	15.8333
49	27165	18.11	15.8333
49	27315	18.21	15.8333
49	27465	18.31	15.8333
49	27615	18.41	15.8333
49	27765	18.51	15.8333
49	27915	18.61	15.8333
49	28065	18.71	15.8333
49	28215	18.81	15.8333
49	28365	18.91	15.8333
49	28519	19.01	15.8333
49	28669	19.11	15.8333
49	28819	19.21	15.8333
49	28969	19.31	15.8333
49	29119	19.41	15.8333
49	29269	19.51	15.8333
49	29419	19.61	15.8333
49	29569	19.71	15.8333
49	29719	19.81	15.8333
49	29869	19.91	15.8333
49	30023	20.01	15.8333
49	30173	20.11	15.8333
49	30323	20.21	15.8333
49	30473	20.31	15.8333
49	30623	20.41	15.8333
49	30773	20.51	15.8333
49	30923	20.61	15.8333
49	31073	20.71	15.8333
49	31223	20.81	15.8333
49	31373	20.91	15.8333
49	31527	21.01	15.8333
49	31677	21.11	15.8333
49	31827	21.21	15.8333
49	31977	21.31	15.8333
49	32127	21.41	15.8333
49	32277	21.51	15.8333
49	32427	21.61	15.8333
49	32577	21.71	15.8333
49	32727	21.81	15.8333
49	32877	21.91	15.8333
49	33031	22.01	15.8333
49	33181	22.11	15.8333
49	33331	22.21	15.8333
49	33481	22.31	15.8333
49	33631	22.41	15.8333
49	33781	22.51	15.8333
49	33931	22.61	15.8333
49	34081	22.71	15.8333
49	34231	22.81	15.8333
49	34381	22.91	15.8333
49	34535	23.01	15.8333
49	34685	23.11	15.8333
49	34835	23.21	15.8333
49	34985	23.31	15.8333
49	35135	23.41	15.8333
49	35285	23.51	15.8333
49	35435	23.61	15.8333
49	35585	23.71	15.8333
49	35735	23.81	15.8333
49	35885	23.91	15.8333
49	36039	24.01	15.8333
49	36189	24.11	15.8333
49	36339	24.21	15.8333
49	36489	24.31	15.8333
49	36639	24.41	15.8333
49	36789	24.51	15.8333
49	36939	24.61	15.8333
49	37089	24.71	15.8333
49	37239	24.81	15.8333
49	37389	24.91	15.8333
49	37543	25.01	15.8333
49	37693	25.11	15.8333
49	37843	25.21	15.8333
49	37993	25.31	15.8333
49	38143	25.41	15.8333
49	38293	25.51	15.8333
49	38443	25.61	15.8333
49	38593	25.71	15.8333
49	38743	25.81	15.8333
49	38893	25.91	15.8333
49	39047	26.01	15.8333
49	39197	26.11	15.8333
49	39347	26.21	15.8333
49	39497	26.31	15.8333
49	39647	26.41	15.8333
49	39797	26.51	15.8333
49	39947	26.61	15.8333
49	40097	26.71	15.8333
49	40247	26.81	15.8333
49	40397	26.91	15.8333
49	40551	27.01	15.8333
49	40701	27.11	15.8333
49	40851	27.21	15.8333
49	41001	27.31	15.8333
49	41151	27.41	15.8333
49	41301	27.51	15.8333
49	41451	27.61	15.8333
49	41601	27.71	15.8333
49	41751	27.81	15.8333
49	41901	27.91	15.8333
49	42055	28.01	15.8333
49	42205	28.11	15.8333
49	42355	28.21	15.8333
49	42505	28.31	15.8333
49	42655	28.41	15.8333
49	42805	28.51	15.8333
49	42955	28.61	15.8333
49	43105	28.71	15.8333
49	43255	28.81	15.8333
49	43405	28.91	15.8333
49	43559	29.01	15.8333
49	43709	29.11	15.8333
49	43859	29.21	15.8333
49	44009	29.31	15.8333
49	44159	29.41	15.8333
49	44309	29.51	15.8333
49	44459	29.61	15.8333
49	44609	29.71	15.8333
49	44759	29.81	15.8333
49	44909	29.91	15.8333
49	45063	30.01	15.8333
49	45213	30.11	15.8333
49	45363	30.21	15.8333
49	45513	30.31	15.8333
49	45663	30.41	15.8333
49	45813	30.51	15.8333
49	45963	30.61	15.8333
49	46113	30.71	15.8333
49	46263	30.81	15.8333
49	46413	30.91	15.8333
49	46567	31.01	15.8333
49	46717	31.11	15.8333
49	46867	31.21	15.8333
49	47017	31.31	15.8333
49	47167	31.41	15.8333
49	47317	31.51	15.8333
49	47467	31.61	15.8333
49	47617	31.71	15.8333
49	47767	31.81	15.8333
49	47917	31.91	15.8333
49	48071	32.01	15.8333
49	48221	32.11	15.8333
49	48371	32.21	15.8333
49	48521	32.31	15.8333
49	48671	32.41	15.8333
49	48821	32.51	15.8333
49	48971	32.61	15.8333
49	49121	32.71	15.8333
49	49271	32.81	15.8333
49	49421	32.91	15.8333
49	49575	33.01	15.8333
49	49725	33.11	15.8333
49	49875	33.21	15.8333
49	50025	33.31	15.8333
45	26	0.21	0
45	176	0.31	0
45	326	0.41	0
45	476	0.51	0
45	626	0.61	0
45	776	0.71	0
45	926	0.81	0
45	1076	0.91	0
45	1230	1.01	0
45	1381	1.11	0
45	1532	1.21	0
45	1683	1.31	0
45	2046	1.41	6.6896
45	2196	1.51	6.31887
45	2346	1.61	6.04167
45	2496	1.71	5.8412
45	2646	1.81	5.70368
45	2796	1.91	5.61781
45	2950	2.01	5.5743
45	3100	2.11	5.56555
45	3250	2.21	5.58532
45	3400	2.31	5.62848
45	3550	2.41	5.69084
45	3700	2.51	5.76894
45	3850	2.61	5.85995
45	4000	2.71	5.96157
45	4150	2.81	6.07187
45	4300	2.91	6.18931
45	4454	3.01	6.31261
45	4604	3.11	6.4407
45	4754	3.21	6.57273
45	4904	3.31	6.70799
45	5054	3.41	6.84591
45	5204	3.51	6.98599
45	5354	3.61	7.12786
45	5504	3.71	7.27119
45	5654	3.81	7.41573
45	5804	3.91	7.56124
45	5958	4.01	7.70757
45	6108	4.11	7.85456
45	6258	4.21	8.00208
45	6408	4.31	8.15006
45	6558	4.41	8.2984
45	6708	4.51	8.44704
45	6858	4.61	8.59592
45	7008	4.71	8.74501
45	7158	4.81	8.89426
45	7308	4.91	9.04365
45	7462	5.01	9.19314
45	7612	5.11	9.34273
45	7762	5.21	9.49239
45	7912	5.31	9.64211
45	8062	5.41	9.79189
45	8212	5.51	9.9417
45	8362	5.61	10.0915
45	8512	5.71	10.2414
45	8662	5.81	10.3913
45	8812	5.91	10.5411
45	8966	6.01	10.6891
45	9116	6.11	10.8331
45	9266	6.21	10.9711
45	9416	6.31	11.1018
45	9566	6.41	11.2241
45	9716	6.51	11.3374
45	9866	6.61	11.4412
45	10016	6.71	11.5354
45	10166	6.81	11.62
45	10316	6.91	11.6952
45	10470	7.01	11.7614
45	10620	7.11	11.819
45	10770	7.21	11.8685
45	10920	7.31	11.9104
45	11070	7.41	11.9454
45	11220	7.51	11.9742
45	11370	7.61	11.9972
45	11520	7.71	12.0151
45	11670	7.81	12.0286
45	11820	7.91	12.0381
45	11974	8.01	12.0443
45	12124	8.11	12.0475
45	12274	8.21	12.0483
45	12424	8.31	12.0471
45	12574	8.41	12.0443
45	12724	8.51	12.0402
45	12874	8.61	12.0351
45	13024	8.71	12.0293
45	13174	8.81	12.0231
45	13324	8.91	12.0165
45	13478	9.01	12.0098
45	13628	9.11	12.0032
45	13778	9.21	11.9967
45	13928	9.31	11.9904
45	14078	9.41	11.9844
45	14228	9.51	11.9788
45	14378	9.61	11.9736
45	14528	9.71	11.9688
45	14678	9.81	11.9644
45	14828	9.91	11.9605
45	14982	10.01	11.957
45	15132	10.11	11.9538
45	15282	10.21	11.9511
45	15432	10.31	11.9488
45	15582	10.41	11.9468
45	15732	10.51	11.9451
45	15882	10.61	11.9437
45	16032	10.71	11.9426
45	16182	10.81	11.9417
45	16332	10.91	11.941
45	16486	11.01	11.9405
45	16636	11.11	11.9402
45	16786	11.21	11.94
45	16936	11.31	11.9399
45	17087	11.41	0
45	17237	11.51	0
45	17387	11.61	0
45	17537	11.71	0
45	17687	11.81	0
45	17837	11.91	0
45	17991	12.01	0
45	18141	12.11	0
45	18291	12.21	0
45	18441	12.31	0
45	18591	12.41	0
45	18741	12.51	0
45	18891	12.61	0
45	19041	12.71	0
45	19191	12.81	0
45	19341	12.91	0
45	19495	13.01	0
45	19645	13.11	0
45	19795	13.21	0
45	19945	13.31	0
45	20095	13.41	0
45	20245	13.51	0
45	20395	13.61	0
45	20545	13.71	0
45	20695	13.81	0
45	20845	13.91	0
45	20999	14.01	0
45	21149	14.11	0
45	21299	14.21	0
45	21449	14.31	0
45	21599	14.41	0
45	21749	14.51	0
45	21899	14.61	0
45	22049	14.71	0
45	22199	14.81	0
45	22349	14.91	0
45	22503	15.01	0
45	22653	15.11	0
45	22803	15.21	0
45	22953	15.31	0
45	23103	15.41	0
45	23253	15.51	0
45	23403	15.61	0
45	23553	15.71	0
45	23703	15.81	0
45	23853	15.91	0
45	24007	16.01	0
45	24157	16.11	0
45	24307	16.21	0
45	24457	16.31	0
45	24607	16.41	0
45	24757	16.51	0
45	24907	16.61	0
45	25057	16.71	0
45	25207	16.81	0
45	25357	16.91	0
45	25511	17.01	0
45	25661	17.11	0
45	25811	17.21	0
45	25961	17.31	0
45	26111	17.41	0
45	26261	17.51	0
45	26411	17.61	0
45	26561	17.71	0
45	26711	17.81	0
45	26861	17.91	0
45	27015	18.01	0
45	27165	18.11	0
45	27315	18.21	0
45	27465	18.31	0
45	27615	18.41	0
45	27765	18.51	0
45	27915	18.61	0
45	28065	18.71	0
45	28215	18.81	0
45	28365	18.91	0
45	28519	19.01	0
45	28669	19.11	0
45	28819	19.21	0
45	28969	19.31	0
45	29119	19.41	0
45	29269	19.51	0
45	29419	19.61	0
45	29569	19.71	0
45	29719	19.81	0
45	29869	19.91	0
45	30023	20.01	0
45	30173	20.11	0
45	30323	20.21	0
45	30473	20.31	0
45	30623	20.41	0
45	30773	20.51	0
45	30923	20.61	0
45	31073	20.71	0
45	31223	20.81	0
45	31373	20.91	0
45	31527	21.01	0
45	31677	21.11	0
45	31827	21.21	0
45	31977	21.31	0
45	32127	21.41	0
45	32277	21.51	0
45	32427	21.61	0
45	32577	21.71	0
45	32727	21.81	0
45	32877	21.91	0
45	33031	22.01	0
45	33181	22.11	0
45	33331	22.21	0
45	33481	22.31	0
45	33631	22.41	0
45	33781	22.51	0
45	33931	22.61	0
45	34081	22.71	0
45	34231	22.81	0
45	34381	22.91	0
45	34535	23.01	0
45	34685	23.11	0
45	34835	23.21	0
45	34985	23.31	0
45	35135	23.41	0
45	35285	23.51	0
45	35435	23.61	0
45	35585	23.71	0
45	35735	23.81	0
45	35885	23.91	0
45	36039	24.01	0
45	36189	24.11	0
45	36339	24.21	0
45	36489	24.31	0
45	36639	24.41	0
45	36789	24.51	0
45	36939	24.61	0
45	37089	24.71	0
45	37239	24.81	0
45	37389	24.91	0
45	37543	25.01	0
45	37693	25.11	0
45	37843	25.21	0
45	37993	25.31	0
45	38143	25.41	0
45	38293	25.51	0
45	38443	25.61	0
45	38593	25.71	0
45	38743	25.81	0
45	38893	25.91	0
45	39047	26.01	0
45	39197	26.11	0
45	39347	26.21	0
45	39497	26.31	0
45	39647	26.41	0
45	39797	26.51	0
45	39947	26.61	0
45	40097	26.71	0
45	40247	26.81	0
45	40397	26.91	0
45	40551	27.01	0
45	40701	27.11	0
45	40851	27.21	0
45	41001	27.31	0
45	41151	27.41	0
45	41301	27.51	0
45	41451	27.61	0
45	41601	27.71	0
45	41751	27.81	0
45	41901	27.91	0
45	42055	28.01	0
45	42205	28.11	0
45	42355	28.21	0
45	42505	28.31	0
45	42655	28.41	0
45	42805	28.51	0
45	42955	28.61	0
45	43105	28.71	0
45	43255	28.81	0
45	43405	28.91	0
45	43559	29.01	0
45	43709	29.11	0
45	43859	29.21	0
45	44009	29.31	0
45	44159	29.41	0
45	44309	29.51	0
45	44459	29.61	0
45	44609	29.71	0
45	44759	29.81	0
45	44909	29.91	0
45	45063	30.01	0
45	45213	30.11	0
45	45363	30.21	0
45	45513	30.31	0
45	45663	30.41	0
45	45813	30.51	0
45	45963	30.61	0
45	46113	30.71	0
45	46263	30.81	0
45	46413	30.91	0
45	46567	31.01	0
45	46717	31.11	0
45	46867	31.21	0
45	47017	31.31	0
45	47167	31.41	0
45	47317	31.51	0
45	47467	31.61	0
45	47617	31.71	0
45	47767	31.81	0
45	47917	31.91	0
45	48071	32.01	0
45	48221	32.11	0
45	48371	32.21	0
45	48521	32.31	0
45	48671	32.41	0
45	48821	32.51	0
45	48971	32.61	0
45	49121	32.71	0
45	49271	32.81	0
45	49421	32.91	0
45	49575	33.01	0
45	49725	33.11	0
45	49875	33.21	0
45	50025	33.31	0
44	26	0.21	-1
44	176	0.31	-1
44	326	0.41	-1
44	476	0.51	-1
44	626	0.61	-1
44	776	0.71	-1
44	926	0.81	-1
44	1076	0.91	-1
44	1230	1.01	-1
44	1381	1.11	-1
44	1532	1.21	-1
44	1683	1.31	-1
44	2046	1.41	426.59
44	2196	1.51	422.774
44	2346	1.61	418.99
44	2496	1.71	415.23
44	2646	1.81	411.487
44	2796	1.91	407.755
44	2950	2.01	404.029
44	3100	2.11	400.305
44	3250	2.21	396.581
44	3400	2.31	392.854
44	3550	2.41	389.122
44	3700	2.51	385.382
44	3850	2.61	381.634
44	4000	2.71	377.877
44	4150	2.81	374.108
44	4300	2.91	370.329
44	4454	3.01	366.537
44	4604	3.11	362.733
44	4754	3.21	358.915
44	4904	3.31	355.084
44	5054	3.41	351.24
44	5204	3.51	347.382
44	5354	3.61	343.509
44	5504	3.71	339.623
44	5654	3.81	335.722
44	5804	3.91	331.806
44	5958	4.01	327.876
44	6108	4.11	323.931
44	6258	4.21	319.972
44	6408	4.31	315.998
44	6558	4.41	312.009
44	6708	4.51	308.005
44	6858	4.61	303.986
44	7008	4.71	299.952
44	7158	4.81	295.903
44	7308	4.91	291.84
44	7462	5.01	287.761
44	7612	5.11	283.668
44	7762	5.21	279.56
44	7912	5.31	275.436
44	8062	5.41	271.298
44	8212	5.51	267.144
44	8362	5.61	262.976
44	8512	5.71	258.793
44	8662	5.81	254.594
44	8812	5.91	250.381
44	8966	6.01	246.153
44	9116	6.11	241.91
44	9266	6.21	237.653
44	9416	6.31	233.383
44	9566	6.41	229.1
44	9716	6.51	224.805
44	9866	6.61	220.499
44	10016	6.71	216.184
44	10166	6.81	211.859
44	10316	6.91	207.527
44	10470	7.01	203.187
44	10620	7.11	198.842
44	10770	7.21	194.49
44	10920	7.31	190.135
44	11070	7.41	185.775
44	11220	7.51	181.413
44	11370	7.61	177.047
44	11520	7.71	172.68
44	11670	7.81	168.311
44	11820	7.91	163.941
44	11974	8.01	159.57
44	12124	8.11	155.199
44	12274	8.21	150.828
44	12424	8.31	146.456
44	12574	8.41	142.085
44	12724	8.51	137.714
44	12874	8.61	133.343
44	13024	8.71	128.974
44	13174	8.81	124.604
44	13324	8.91	120.236
44	13478	9.01	115.868
44	13628	9.11	111.5
44	13778	9.21	107.134
44	13928	9.31	102.768
44	14078	9.41	98.4023
44	14228	9.51	94.0375
44	14378	9.61	89.6732
44	14528	9.71	85.3095
44	14678	9.81	80.9461
44	14828	9.91	76.5832
44	14982	10.01	72.2207
44	15132	10.11	67.8585
44	15282	10.21	63.4966
44	15432	10.31	59.135
44	15582	10.41	54.7735
44	15732	10.51	50.4123
44	15882	10.61	46.0512
44	16032	10.71	41.6902
44	16182	10.81	37.3293
44	16332	10.91	32.9686
44	16486	11.01	28.6078
44	16636	11.11	24.2471
44	16786	11.21	19.8865
44	16936	11.31	15.5258
44	17087	11.41	-1
44	17237	11.51	-1
44	17387	11.61	-1
44	17537	11.71	-1
44	17687	11.81	-1
44	17837	11.91	-1
44	17991	12.01	-1
44	18141	12.11	-1
44	18291	12.21	-1
44	18441	12.31	-1
44	18591	12.41	-1
44	18741	12.51	-1
44	18891	12.61	-1
44	19041	12.71	-1
44	19191	12.81	-1
44	19341	12.91	-1
44	19495	13.01	-1
44	19645	13.11	-1
44	19795	13.21	-1
44	19945	13.31	-1
44	20095	13.41	-1
44	20245	13.51	-1
44	20395	13.61	-1
44	20545	13.71	-1
44	20695	13.81	-1
44	20845	13.91	-1
44	20999	14.01	-1
44	21149	14.11	-1
44	21299	14.21	-1
44	21449	14.31	-1
44	21599	14.41	-1
44	21749	14.51	-1
44	21899	14.61	-1
44	22049	14.71	-1
44	22199	14.81	-1
44	22349	14.91	-1
44	22503	15.01	-1
44	22653	15.11	-1
44	22803	15.21	-1
44	22953	15.31	-1
44	23103	15.41	-1
44	23253	15.51	-1
44	23403	15.61	-1
44	23553	15.71	-1
44	23703	15.81	-1
44	23853	15.91	-1
44	24007	16.01	-1
44	24157	16.11	-1
44	24307	16.21	-1
44	24457	16.31	-1
44	24607	16.41	-1
44	24757	16.51	-1
44	24907	16.61	-1
44	25057	16.71	-1
44	25207	16.81	-1
44	25357	16.91	-1
44	25511	17.01	-1
44	25661	17.11	-1
44	25811	17.21	-1
44	25961	17.31	-1
44	26111	17.41	-1
44	26261	17.51	-1
44	26411	17.61	-1
44	26561	17.71	-1
44	26711	17.81	-1
44	26861	17.91	-1
44	27015	18.01	-1
44	27165	18.11	-1
44	27315	18.21	-1
44	27465	18.31	-1
44	27615	18.41	-1
44	27765	18.51	-1
44	27915	18.61	-1
44	28065	18.71	-1
44	28215	18.81	-1
44	28365	18.91	-1
44	28519	19.01	-1
44	28669	19.11	-1
44	28819	19.21	-1
44	28969	19.31	-1
44	29119	19.41	-1
44	29269	19.51	-1
44	29419	19.61	-1
44	29569	19.71	-1
44	29719	19.81	-1
44	29869	19.91	-1
44	30023	20.01	-1
44	30173	20.11	-1
44	30323	20.21	-1
44	30473	20.31	-1
44	30623	20.41	-1
44	30773	20.51	-1
44	30923	20.61	-1
44	31073	20.71	-1
44	31223	20.81	-1
44	31373	20.91	-1
44	31527	21.01	-1
44	31677	21.11	-1
44	31827	21.21	-1
44	31977	21.31	-1
44	32127	21.41	-1
44	32277	21.51	-1
44	32427	21.61	-1
44	32577	21.71	-1
44	32727	21.81	-1
44	32877	21.91	-1
44	33031	22.01	-1
44	33181	22.11	-1
44	33331	22.21	-1
44	33481	22.31	-1
44	33631	22.41	-1
44	33781	22.51	-1
44	33931	22.61	-1
44	34081	22.71	-1
44	34231	22.81	-1
44	34381	22.91	-1
44	34535	23.01	-1
44	34685	23.11	-1
44	34835	23.21	-1
44	34985	23.31	-1
44	35135	23.41	-1
44	35285	23.51	-1
44	35435	23.61	-1
44	35585	23.71	-1
44	35735	23.81	-1
44	35885	23.91	-1
44	36039	24.01	-1
44	36189	24.11	-1
44	36339	24.21	-1
44	36489	24.31	-1
44	36639	24.41	-1
44	36789	24.51	-1
44	36939	24.61	-1
44	37089	24.71	-1
44	37239	24.81	-1
44	37389	24.91	-1
44	37543	25.01	-1
44	37693	25.11	-1
44	37843	25.21	-1
44	37993	25.31	-1
44	38143	25.41	-1
44	38293	25.51	-1
44	38443	25.61	-1
44	38593	25.71	-1
44	38743	25.81	-1
44	38893	25.91	-1
44	39047	26.01	-1
44	39197	26.11	-1
44	39347	26.21	-1
44	39497	26.31	-1
44	39647	26.41	-1
44	39797	26.51	-1
44	39947	26.61	-1
44	40097	26.71	-1
44	40247	26.81	-1
44	40397	26.91	-1
44	40551	27.01	-1
44	40701	27.11	-1
44	40851	27.21	-1
44	41001	27.31	-1
44	41151	27.41	-1
44	41301	27.51	-1
44	41451	27.61	-1
44	41601	27.71	-1
44	41751	27.81	-1
44	41901	27.91	-1
44	42055	28.01	-1
44	42205	28.11	-1
44	42355	28.21	-1
44	42505	28.31	-1
44	42655	28.41	-1
44	42805	28.51	-1
44	42955	28.61	-1
44	43105	28.71	-1
44	43255	28.81	-1
44	43405	28.91	-1
44	43559	29.01	-1
44	43709	29.11	-1
44	43859	29.21	-1
44	44009	29.31	-1
44	44159	29.41	-1
44	44309	29.51	-1
44	44459	29.61	-1
44	44609	29.71	-1
44	44759	29.81	-1
44	44909	29.91	-1
44	45063	30.01	-1
44	45213	30.11	-1
44	45363	30.21	-1
44	45513	30.31	-1
44	45663	30.41	-1
44	45813	30.51	-1
44	45963	30.61	-1
44	46113	30.71	-1
44	46263	30.81	-1
44	46413	30.91	-1
44	46567	31.01	-1
44	46717	31.11	-1
44	46867	31.21	-1
44	47017	31.31	-1
44	47167	31.41	-1
44	47317	31.51	-1
44	47467	31.61	-1
44	47617	31.71	-1
44	47767	31.81	-1
44	47917	31.91	-1
44	48071	32.01	-1
44	48221	32.11	-1
44	48371	32.21	-1
44	48521	32.31	-1
44	48671	32.41	-1
44	48821	32.51	-1
44	48971	32.61	-1
44	49121	32.71	-1
44	49271	32.81	-1
44	49421	32.91	-1
44	49575	33.01	-1
44	49725	33.11	-1
44	49875	33.21	-1
44	50025	33.31	-1
46	26	0.21	3
46	176	0.31	3
46	326	0.41	3
46	476	0.51	3
46	626	0.61	3
46	776	0.71	3
46	926	0.81	3
46	1076	0.91	3
46	1230	1.01	3
46	1381	1.11	3
46	1532	1.21	3
46	1683	1.31	3
46	2046	1.41	3
46	2196	1.51	3
46	2346	1.61	3
46	2496	1.71	3
46	2646	1.81	3
46	2796	1.91	3
46	2950	2.01	3
46	3100	2.11	3
46	3250	2.21	3
46	3400	2.31	3
46	3550	2.41	3
46	3700	2.51	3
46	3850	2.61	3
46	4000	2.71	3
46	4150	2.81	3
46	4300	2.91	3
46	4454	3.01	3
46	4604	3.11	3
46	4754	3.21	3
46	4904	3.31	3
46	5054	3.41	3
46	5204	3.51	3
46	5354	3.61	3
46	5504	3.71	3
46	5654	3.81	3
46	5804	3.91	3
46	5958	4.01	3
46	6108	4.11	3
46	6258	4.21	3
46	6408	4.31	3
46	6558	4.41	3
46	6708	4.51	3
46	6858	4.61	3
46	7008	4.71	3
46	7158	4.81	3
46	7308	4.91	3
46	7462	5.01	3
46	7612	5.11	3
46	7762	5.21	3
46	7912	5.31	3
46	8062	5.41	3
46	8212	5.51	3
46	8362	5.61	3
46	8512	5.71	3
46	8662	5.81	3
46	8812	5.91	3
46	8966	6.01	3
46	9116	6.11	3
46	9266	6.21	3
46	9416	6.31	3
46	9566	6.41	3
46	9716	6.51	3
46	9866	6.61	3
46	10016	6.71	3
46	10166	6.81	3
46	10316	6.91	3
46	10470	7.01	3
46	10620	7.11	3
46	10770	7.21	3
46	10920	7.31	3
46	11070	7.41	3
46	11220	7.51	3
46	11370	7.61	3
46	11520	7.71	3
46	11670	7.81	3
46	11820	7.91	3
46	11974	8.01	3
46	12124	8.11	3
46	12274	8.21	3
46	12424	8.31	3
46	12574	8.41	3
46	12724	8.51	3
46	12874	8.61	3
46	13024	8.71	3
46	13174	8.81	3
46	13324	8.91	3
46	13478	9.01	3
46	13628	9.11	3
46	13778	9.21	3
46	13928	9.31	3
46	14078	9.41	3
46	14228	9.51	3
46	14378	9.61	3
46	14528	9.71	3
46	14678	9.81	3
46	14828	9.91	3
46	14982	10.01	3
46	15132	10.11	3
46	15282	10.21	3
46	15432	10.31	3
46	15582	10.41	3
46	15732	10.51	3
46	15882	10.61	3
46	16032	10.71	3
46	16182	10.81	3
46	16332	10.91	3
46	16486	11.01	3
46	16636	11.11	3
46	16786	11.21	3
46	16936	11.31	3
46	17087	11.41	3
46	17237	11.51	3
46	17387	11.61	3
46	17537	11.71	3
46	17687	11.81	3
46	17837	11.91	3
46	17991	12.01	3
46	18141	12.11	3
46	18291	12.21	3
46	18441	12.31	3
46	18591	12.41	3
46	18741	12.51	3
46	18891	12.61	3
46	19041	12.71	3
46	19191	12.81	3
46	19341	12.91	3
46	19495	13.01	3
46	19645	13.11	3
46	19795	13.21	3
46	19945	13.31	3
46	20095	13.41	3
46	20245	13.51	3
46	20395	13.61	3
46	20545	13.71	3
46	20695	13.81	3
46	20845	13.91	3
46	20999	14.01	3
46	21149	14.11	3
46	21299	14.21	3
46	21449	14.31	3
46	21599	14.41	3
46	21749	14.51	3
46	21899	14.61	3
46	22049	14.71	3
46	22199	14.81	3
46	22349	14.91	3
46	22503	15.01	3
46	22653	15.11	3
46	22803	15.21	3
46	22953	15.31	3
46	23103	15.41	3
46	23253	15.51	3
46	23403	15.61	3
46	23553	15.71	3
46	23703	15.81	3
46	23853	15.91	3
46	24007	16.01	3
46	24157	16.11	3
46	24307	16.21	3
46	24457	16.31	3
46	24607	16.41	3
46	24757	16.51	3
46	24907	16.61	3
46	25057	16.71	3
46	25207	16.81	3
46	25357	16.91	3
46	25511	17.01	3
46	25661	17.11	3
46	25811	17.21	3
46	25961	17.31	3
46	26111	17.41	3
46	26261	17.51	3
46	26411	17.61	3
46	26561	17.71	3
46	26711	17.81	3
46	26861	17.91	3
46	27015	18.01	3
46	27165	18.11	3
46	27315	18.21	3
46	27465	18.31	3
46	27615	18.41	3
46	27765	18.51	3
46	27915	18.61	3
46	28065	18.71	3
46	28215	18.81	3
46	28365	18.91	3
46	28519	19.01	3
46	28669	19.11	3
46	28819	19.21	3
46	28969	19.31	3
46	29119	19.41	3
46	29269	19.51	3
46	29419	19.61	3
46	29569	19.71	3
46	29719	19.81	3
46	29869	19.91	3
46	30023	20.01	3
46	30173	20.11	3
46	30323	20.21	3
46	30473	20.31	3
46	30623	20.41	3
46	30773	20.51	3
46	30923	20.61	3
46	31073	20.71	3
46	31223	20.81	3
46	31373	20.91	3
46	31527	21.01	3
46	31677	21.11	3
46	31827	21.21	3
46	31977	21.31	3
46	32127	21.41	3
46	32277	21.51	3
46	32427	21.61	3
46	32577	21.71	3
46	32727	21.81	3
46	32877	21.91	3
46	33031	22.01	3
46	33181	22.11	3
46	33331	22.21	3
46	33481	22.31	3
46	33631	22.41	3
46	33781	22.51	3
46	33931	22.61	3
46	34081	22.71	3
46	34231	22.81	3
46	34381	22.91	3
46	34535	23.01	3
46	34685	23.11	3
46	34835	23.21	3
46	34985	23.31	3
46	35135	23.41	3
46	35285	23.51	3
46	35435	23.61	3
46	35585	23.71	3
46	35735	23.81	3
46	35885	23.91	3
46	36039	24.01	3
46	36189	24.11	3
46	36339	24.21	3
46	36489	24.31	3
46	36639	24.41	3
46	36789	24.51	3
46	36939	24.61	3
46	37089	24.71	3
46	37239	24.81	3
46	37389	24.91	3
46	37543	25.01	3
46	37693	25.11	3
46	37843	25.21	3
46	37993	25.31	3
46	38143	25.41	3
46	38293	25.51	3
46	38443	25.61	3
46	38593	25.71	3
46	38743	25.81	3
46	38893	25.91	3
46	39047	26.01	3
46	39197	26.11	3
46	39347	26.21	3
46	39497	26.31	3
46	39647	26.41	3
46	39797	26.51	3
46	39947	26.61	3
46	40097	26.71	3
46	40247	26.81	3
46	40397	26.91	3
46	40551	27.01	3
46	40701	27.11	3
46	40851	27.21	3
46	41001	27.31	3
46	41151	27.41	3
46	41301	27.51	3
46	41451	27.61	3
46	41601	27.71	3
46	41751	27.81	3
46	41901	27.91	3
46	42055	28.01	3
46	42205	28.11	3
46	42355	28.21	3
46	42505	28.31	3
46	42655	28.41	3
46	42805	28.51	3
46	42955	28.61	3
46	43105	28.71	3
46	43255	28.81	3
46	43405	28.91	3
46	43559	29.01	3
46	43709	29.11	3
46	43859	29.21	3
46	44009	29.31	3
46	44159	29.41	3
46	44309	29.51	3
46	44459	29.61	3
46	44609	29.71	3
46	44759	29.81	3
46	44909	29.91	3
46	45063	30.01	3
46	45213	30.11	3
46	45363	30.21	3
46	45513	30.31	3
46	45663	30.41	3
46	45813	30.51	3
46	45963	30.61	3
46	46113	30.71	3
46	46263	30.81	3
46	46413	30.91	3
46	46567	31.01	3
46	46717	31.11	3
46	46867	31.21	3
46	47017	31.31	3
46	47167	31.41	3
46	47317	31.51	3
46	47467	31.61	3
46	47617	31.71	3
46	47767	31.81	3
46	47917	31.91	3
46	48071	32.01	3
46	48221	32.11	3
46	48371	32.21	3
46	48521	32.31	3
46	48671	32.41	3
46	48821	32.51	3
46	48971	32.61	3
46	49121	32.71	3
46	49271	32.81	3
46	49421	32.91	3
46	49575	33.01	3
46	49725	33.11	3
46	49875	33.21	3
46	50025	33.31	3
67	1191	1	0
67	2911	2	0
67	4415	3	0
67	5919	4	0
67	7423	5	0
67	8927	6	0
67	10431	7	0
67	11935	8	0
67	13439	9	0
67	14943	10	0
67	16447	11	0
67	17952	12	0
67	19456	13	0
67	20960	14	0
67	22464	15	0
67	23968	16	0
67	25472	17	0
67	26976	18	0
67	28480	19	0
67	29984	20	0
67	31488	21	0
67	32992	22	0
67	34496	23	0
67	36000	24	0
67	37504	25	0
67	39008	26	0
67	40512	27	0
67	42016	28	0
67	43520	29	0
67	45024	30	0
67	46528	31	0
67	48032	32	0
67	49536	33	0
66	1191	1	0.009679
66	2911	2	0.01300584245
66	4415	3	0.01249
66	5919	4	0.01249
66	7423	5	0.01249
66	8927	6	0.01249
66	10431	7	0.01249
66	11935	8	0.01249
66	13439	9	0.01249
66	14943	10	0.01249
66	16447	11	0.01249
66	17952	12	0.01249
66	19456	13	0.01249
66	20960	14	0.01249
66	22464	15	0.01249
66	23968	16	0.01249
66	25472	17	0.01249
66	26976	18	0.01249
66	28480	19	0.01249
66	29984	20	0.01249
66	31488	21	0.01249
66	32992	22	0.01249
66	34496	23	0.01249
66	36000	24	0.01249
66	37504	25	0.01249
66	39008	26	0.01249
66	40512	27	0.01249
66	42016	28	0.01249
66	43520	29	0.01249
66	45024	30	0.01249
66	46528	31	0.01249
66	48032	32	0.01249
66	49536	33	0.01249
65	1191	1	3
65	2911	2	3
65	4415	3	3
65	5919	4	3
65	7423	5	3
65	8927	6	3
65	10431	7	3
65	11935	8	3
65	13439	9	3
65	14943	10	3
65	16447	11	3
65	17952	12	3
65	19456	13	3
65	20960	14	3
65	22464	15	3
65	23968	16	3
65	25472	17	3
65	26976	18	3
65	28480	19	3
65	29984	20	3
65	31488	21	3
65	32992	22	3
65	34496	23	3
65	36000	24	3
65	37504	25	3
65	39008	26	3
65	40512	27	3
65	42016	28	3
65	43520	29	3
65	45024	30	3
65	46528	31	3
65	48032	32	3
65	49536	33	3
19	15	0.13	2.240578848106
19	16	0.14	2.2408161980702
19	17	0.15	2.2410488279274
19	18	0.16	2.2412767846408
19	19	0.17	2.2415001151681
19	20	0.18	2.2417188664509
19	21	0.19	2.2419330854078
19	22	0.2	2.2421428189249
19	27	0.21	2.2423481138478
19	62	0.22	2.2425490169717
19	97	0.23	2.2427455750354
19	98	0.24	2.2429378347121
19	99	0.25	2.2431258426007
19	134	0.26	2.2433096452199
19	135	0.27	2.2434892889993
19	136	0.28	2.2436648202737
19	137	0.29	2.2438362852743
19	138	0.3	2.2440037301218
19	177	0.31	2.2441672008206
19	212	0.32	2.2443267432509
19	247	0.33	2.2444824031634
19	248	0.34	2.2446342261724
19	249	0.35	2.2447822577488
19	284	0.36	2.2449265432147
19	285	0.37	2.2450671277376
19	286	0.38	2.2452040563251
19	287	0.39	2.2453373738167
19	288	0.4	2.2454671248818
19	327	0.41	2.2455933540121
19	362	0.42	2.245716105517
19	397	0.43	2.245835423518
19	398	0.44	2.2459513519448
19	399	0.45	2.2460639345295
19	434	0.46	2.2461732148023
19	435	0.47	2.2462792360869
19	436	0.48	2.2463820414966
19	437	0.49	2.2464816739291
19	438	0.5	2.2465781760627
19	477	0.51	2.2466715903521
19	512	0.52	2.2467619590249
19	547	0.53	2.2468493240774
19	548	0.54	2.2469337272716
19	549	0.55	2.2470152101305
19	584	0.56	2.247093813935
19	585	0.57	2.2471695797217
19	586	0.58	2.2472425482782
19	587	0.59	2.2473127601408
19	588	0.6	2.2473802555906
19	627	0.61	2.247445074652
19	662	0.62	2.2475072570889
19	697	0.63	2.2475668424029
19	698	0.64	2.2476238698291
19	699	0.65	2.2476783783351
19	734	0.66	2.2477304066189
19	735	0.67	2.2477799931043
19	736	0.68	2.2478271759422
19	737	0.69	2.2478719930051
19	738	0.7	2.2479144818875
19	777	0.71	2.247954679903
19	812	0.72	2.2479926240826
19	847	0.73	2.2480283511723
19	848	0.74	2.2480618976341
19	849	0.75	2.2480932996406
19	884	0.76	2.2481225930763
19	885	0.77	2.2481498135359
19	886	0.78	2.2481749963228
19	887	0.79	2.2481981764461
19	888	0.8	2.2482193886227
19	927	0.81	2.248238667274
19	962	0.82	2.2482560465259
19	997	0.83	2.2482715602069
19	998	0.84	2.2482852418489
19	999	0.85	2.2482971246851
19	1034	0.86	2.2483072416491
19	1035	0.87	2.2483156253761
19	1036	0.88	2.2483223082006
19	1037	0.89	2.2483273221574
19	1038	0.9	2.2483306989793
19	1077	0.91	2.2483324700986
19	1112	0.92	2.2483326666464
19	1147	0.93	2.2483313194515
19	1148	0.94	2.2483284590418
19	1149	0.95	2.2483241156426
19	1184	0.96	2.2483183191777
19	1185	0.97	2.2483110992692
19	1186	0.98	2.2483024852376
19	1187	0.99	2.248292506101
19	1192	1	2.2482811905783
19	1231	1.01	2.2482685670849
19	1266	1.02	2.2482546637371
19	1301	1.03	2.2482395083509
19	1302	1.04	2.2482231284422
19	1303	1.05	2.2482055512271
19	1338	1.06	2.2481868036241
19	1339	1.07	2.2481669122518
19	1340	1.08	2.248145903433
19	1341	1.09	2.2481238031918
19	1342	1.1	2.2481006372576
19	1382	1.11	2.2480764310635
19	1417	1.12	2.248051209748
19	1452	1.13	2.2480249981564
19	1453	1.14	2.2479978208403
19	1454	1.15	2.2479697020603
19	1489	1.16	2.247940665785
19	1490	1.17	2.2479107356939
19	1491	1.18	2.2478799351768
19	1492	1.19	2.2478482873357
19	1493	1.2	2.2478158149865
19	1533	1.21	2.2477825406591
19	1568	1.22	2.2477484865988
19	1603	1.23	2.2477136747685
19	1604	1.24	2.2476781268477
19	1605	1.25	2.2476418642362
19	1640	1.26	2.2476049080546
19	1641	1.27	2.2475672791455
19	1642	1.28	2.2475289980739
19	1643	1.29	2.2474900851302
19	1644	1.3	2.2474505603306
19	1684	1.31	2.2474104434195
19	1931	1.32	2.24736975387
19	1966	1.33	2.2473285108851
19	1967	1.34	2.2472867334009
19	1968	1.35	2.2472444400871
19	2004	1.36	2.2472016493471
19	2005	1.37	2.2471583793227
19	2006	1.38	2.2471146478935
19	2007	1.39	2.2470704726793
19	2008	1.4	2.2470258710406
19	2047	1.41	2.2469808600815
19	2082	1.42	2.2469354566524
19	2117	1.43	2.2468896773485
19	2118	1.44	2.2468435385143
19	2119	1.45	2.2467970562444
19	2154	1.46	2.2467502463857
19	2155	1.47	2.2467031245372
19	2156	1.48	2.2466557060545
19	2157	1.49	2.2466080060504
19	2158	1.5	2.2465600393959
19	2197	1.51	2.2465118207228
19	2232	1.52	2.2464633644263
19	2267	1.53	2.2464146846653
19	2268	1.54	2.2463657953652
19	2269	1.55	2.24631671022
19	2304	1.56	2.2462674426926
19	2305	1.57	2.2462180060183
19	2306	1.58	2.2461684132061
19	2307	1.59	2.2461186770406
19	2308	1.6	2.2460688100841
19	2347	1.61	2.2460188246781
19	2382	1.62	2.2459687329447
19	2417	1.63	2.2459185467904
19	2418	1.64	2.2458682779059
19	2419	1.65	2.2458179377702
19	2454	1.66	2.2457675376493
19	2455	1.67	2.2457170886013
19	2456	1.68	2.2456666014777
19	2457	1.69	2.2456160869238
19	2458	1.7	2.2455655553814
19	2497	1.71	2.2455150170914
19	2532	1.72	2.2454644820949
19	2567	1.73	2.2454139602363
19	2568	1.74	2.245363461164
19	2569	1.75	2.2453129943329
19	2604	1.76	2.2452625690053
19	2605	1.77	2.2452121942553
19	2606	1.78	2.245161878968
19	2607	1.79	2.2451116318427
19	2608	1.8	2.2450614613964
19	2647	1.81	2.2450113759622
19	2682	1.82	2.2449613836934
19	2717	1.83	2.2449114925663
19	2718	1.84	2.2448617103803
19	2719	1.85	2.2448120447601
19	2754	1.86	2.2447625031588
19	2755	1.87	2.2447130928589
19	2756	1.88	2.2446638209746
19	2757	1.89	2.2446146944531
19	2758	1.9	2.2445657200766
19	2797	1.91	2.2445169044649
19	2832	1.92	2.2444682540776
19	2867	1.93	2.2444197752138
19	2868	1.94	2.2443714740169
19	2869	1.95	2.2443233564739
19	2904	1.96	2.2442754284185
19	2905	1.97	2.2442276955337
19	2906	1.98	2.2441801633523
19	2907	1.99	2.2441328372595
19	2912	2	2.2440857224945
19	2951	2.01	2.2440388241517
19	2986	2.02	2.2439921471843
19	3021	2.03	2.2439456964036
19	3022	2.04	2.2438994764833
19	3023	2.05	2.2438534919602
19	3058	2.06	2.243807747236
19	3059	2.07	2.2437622465776
19	3060	2.08	2.2437169941224
19	3061	2.09	2.2436719938773
19	3062	2.1	2.2436272497205
19	3101	2.11	2.2435827654049
19	3136	2.12	2.2435385445587
19	3171	2.13	2.243494590687
19	3172	2.14	2.2434509071731
19	3173	2.15	2.2434074972828
19	3208	2.16	2.2433643641629
19	3209	2.17	2.2433215108443
19	3210	2.18	2.2432789402438
19	3211	2.19	2.2432366551655
19	3212	2.2	2.2431946583034
19	3251	2.21	2.243152952241
19	3286	2.22	2.243111539454
19	3321	2.23	2.2430704223131
19	3322	2.24	2.243029603084
19	3323	2.25	2.2429890839298
19	3358	2.26	2.2429488669121
19	3359	2.27	2.2429089539925
19	3360	2.28	2.2428693470355
19	3361	2.29	2.2428300478081
19	3362	2.3	2.2427910579826
19	3401	2.31	2.2427523791376
19	3436	2.32	2.2427140127606
19	3471	2.33	2.2426759602474
19	3472	2.34	2.2426382229066
19	3473	2.35	2.2426008019576
19	3508	2.36	2.2425636985349
19	3509	2.37	2.2425269136884
19	3510	2.38	2.2424904483841
19	3511	2.39	2.2424543035078
19	3512	2.4	2.2424184798632
19	3551	2.41	2.2423829781773
19	3586	2.42	2.2423477990989
19	3621	2.43	2.2423129432006
19	3622	2.44	2.2422784109803
19	3623	2.45	2.242244202863
19	3658	2.46	2.2422103192011
19	3659	2.47	2.242176760278
19	3660	2.48	2.2421435263064
19	3661	2.49	2.2421106174316
19	3662	2.5	2.2420780337321
19	3701	2.51	2.2420457752221
19	3736	2.52	2.2420138418506
19	3771	2.53	2.2419822335042
19	3772	2.54	2.2419509500078
19	3773	2.55	2.2419199911263
19	3808	2.56	2.2418893565658
19	3809	2.57	2.2418590459736
19	3810	2.58	2.2418290589415
19	3811	2.59	2.2417993950055
19	3812	2.6	2.241770053647
19	3851	2.61	2.2417410342951
19	3886	2.62	2.2417123363259
19	3921	2.63	2.2416839590649
19	3922	2.64	2.2416559017885
19	3923	2.65	2.241628163725
19	3958	2.66	2.2416007440538
19	3959	2.67	2.2415736419083
19	3960	2.68	2.241546856378
19	3961	2.69	2.2415203865066
19	3962	2.7	2.241494231295
19	4001	2.71	2.2414683897028
19	4036	2.72	2.2414428606472
19	4071	2.73	2.2414176430065
19	4072	2.74	2.2413927356194
19	4073	2.75	2.2413681372865
19	4108	2.76	2.2413438467718
19	4109	2.77	2.241319862802
19	4110	2.78	2.2412961840701
19	4111	2.79	2.2412728092338
19	4112	2.8	2.2412497369179
19	4151	2.81	2.2412269657153
19	4186	2.82	2.241204494187
19	4221	2.83	2.2411823208632
19	4222	2.84	2.2411604442449
19	4223	2.85	2.2411388628037
19	4258	2.86	2.241117574984
19	4259	2.87	2.2410965792033
19	4260	2.88	2.2410758738516
19	4261	2.89	2.2410554572944
19	4262	2.9	2.2410353278731
19	4301	2.91	2.2410154839042
19	4336	2.92	2.2409959236823
19	4371	2.93	2.2409766454787
19	4372	2.94	2.2409576475437
19	4373	2.95	2.240938928108
19	4408	2.96	2.2409204853807
19	4409	2.97	2.2409023175527
19	4410	2.98	2.2408844227967
19	4411	2.99	2.2408667992672
19	4416	3	2.2408494451016
19	4455	3.01	2.2408323584207
19	4490	3.02	2.2408155373311
19	4525	3.03	2.2407989799229
19	4526	3.04	2.240782684273
19	4527	3.05	2.240766648444
19	4562	3.06	2.2407508704857
19	4563	3.07	2.2407353484357
19	4564	3.08	2.2407200803195
19	4565	3.09	2.2407050641523
19	4566	3.1	2.2406902979386
19	4605	3.11	2.2406757796728
19	4640	3.12	2.2406615073399
19	4675	3.13	2.2406474789158
19	4676	3.14	2.2406336923693
19	4677	3.15	2.2406201456604
19	4712	3.16	2.2406068367433
19	4713	3.17	2.2405937635653
19	4714	3.18	2.2405809240672
19	4715	3.19	2.2405683161845
19	4716	3.2	2.2405559378482
19	4755	3.21	2.2405437869842
19	4790	3.22	2.2405318615153
19	4825	3.23	2.24052015936
19	4826	3.24	2.2405086784344
19	4827	3.25	2.2404974166517
19	4862	3.26	2.2404863719238
19	4863	3.27	2.2404755421597
19	4864	3.28	2.2404649252689
19	4865	3.29	2.2404545191583
19	4866	3.3	2.2404443217359
19	4905	3.31	2.2404343309088
19	4940	3.32	2.2404245445856
19	4975	3.33	2.2404149606755
19	4976	3.34	2.2404055770885
19	4977	3.35	2.2403963917372
19	5012	3.36	2.2403874025349
19	5013	3.37	2.2403786073984
19	5014	3.38	2.2403700042472
19	5015	3.39	2.240361591004
19	5016	3.4	2.2403533655946
19	5055	3.41	2.2403453259493
19	5090	3.42	2.2403374700012
19	5125	3.43	2.2403297956895
19	5126	3.44	2.2403223009568
19	5127	3.45	2.240314983752
19	5162	3.46	2.2403078420291
19	5163	3.47	2.2403008737472
19	5164	3.48	2.2402940768722
19	5165	3.49	2.2402874493758
19	5166	3.5	2.2402809892363
19	5205	3.51	2.2402746944391
19	5240	3.52	2.240268562976
19	5275	3.53	2.2402625928474
19	5276	3.54	2.2402567820602
19	5277	3.55	2.2402511286292
19	5312	3.56	2.2402456305775
19	5313	3.57	2.2402402859364
19	5314	3.58	2.2402350927459
19	5315	3.59	2.2402300490552
19	5316	3.6	2.2402251529213
19	5355	3.61	2.2402204024111
19	5390	3.62	2.2402157956009
19	5425	3.63	2.2402113305758
19	5426	3.64	2.2402070054314
19	5427	3.65	2.2402028182734
19	5462	3.66	2.2401987672169
19	5463	3.67	2.2401948503875
19	5464	3.68	2.2401910659217
19	5465	3.69	2.2401874119656
19	5466	3.7	2.2401838866774
19	5505	3.71	2.2401804882243
19	5540	3.72	2.2401772147868
19	5575	3.73	2.2401740645551
19	5576	3.74	2.2401710357309
19	5577	3.75	2.2401681265279
19	5612	3.76	2.2401653351701
19	5613	3.77	2.2401626598953
19	5614	3.78	2.2401600989509
19	5615	3.79	2.2401576505979
19	5616	3.8	2.240155313109
19	5655	3.81	2.2401530847679
19	5690	3.82	2.240150963872
19	5725	3.83	2.2401489487297
19	5726	3.84	2.2401470376631
19	5727	3.85	2.2401452290059
19	5762	3.86	2.2401435211049
19	5763	3.87	2.2401419123193
19	5764	3.88	2.2401404010213
19	5765	3.89	2.2401389855955
19	5766	3.9	2.2401376644396
19	5805	3.91	2.2401364359641
19	5840	3.92	2.2401352985923
19	5875	3.93	2.2401342507615
19	5876	3.94	2.2401332909211
19	5877	3.95	2.2401324175339
19	5912	3.96	2.2401316290761
19	5913	3.97	2.2401309240373
19	5914	3.98	2.24013030092
19	5915	3.99	2.2401297582392
19	5920	4	2.2401292945249
19	5959	4.01	2.2401289083198
19	5994	4.02	2.2401285981793
19	6029	4.03	2.2401283626731
19	6030	4.04	2.240128200384
19	6031	4.05	2.2401281099081
19	6066	4.06	2.2401280898544
19	6067	4.07	2.2401281388465
19	6068	4.08	2.2401282555212
19	6069	4.09	2.2401284385282
19	6070	4.1	2.2401286865313
19	6109	4.11	2.2401289982072
19	6144	4.12	2.2401293722459
19	6179	4.13	2.2401298073519
19	6180	4.14	2.2401303022421
19	6181	4.15	2.2401308556472
19	6216	4.16	2.2401314663112
19	6217	4.17	2.240132132992
19	6218	4.18	2.2401328544603
19	6219	4.19	2.2401336295005
19	6220	4.2	2.2401344569097
19	6259	4.21	2.2401353354993
19	6294	4.22	2.2401362640935
19	6329	4.23	2.2401372415299
19	6330	4.24	2.2401382666585
19	6331	4.25	2.2401393383435
19	6366	4.26	2.2401404554618
19	6367	4.27	2.240141616904
19	6368	4.28	2.2401428215729
19	6369	4.29	2.240144068384
19	6370	4.3	2.2401453562672
19	6409	4.31	2.2401466841646
19	6444	4.32	2.2401480510313
19	6479	4.33	2.2401494558349
19	6480	4.34	2.2401508975564
19	6481	4.35	2.2401523751892
19	6516	4.36	2.2401538877395
19	6517	4.37	2.2401554342259
19	6518	4.38	2.2401570136797
19	6519	4.39	2.2401586251445
19	6520	4.4	2.2401602676768
19	6559	4.41	2.2401619403456
19	6594	4.42	2.2401636422318
19	6629	4.43	2.2401653724288
19	6630	4.44	2.2401671300427
19	6631	4.45	2.2401689141909
19	6666	4.46	2.2401707240033
19	6667	4.47	2.2401725586218
19	6668	4.48	2.2401744172002
19	6669	4.49	2.2401762989043
19	6670	4.5	2.2401782029117
19	6709	4.51	2.2401801284115
19	6744	4.52	2.2401820746052
19	6779	4.53	2.2401840407051
19	6780	4.54	2.2401860259352
19	6781	4.55	2.2401880295318
19	6816	4.56	2.240190050741
19	6817	4.57	2.240192088822
19	6818	4.58	2.2401941430435
19	6819	4.59	2.2401962126869
19	6820	4.6	2.2401982970441
19	6859	4.61	2.2402003954177
19	6894	4.62	2.2402025071208
19	6929	4.63	2.2402046314786
19	6930	4.64	2.2402067678264
19	6931	4.65	2.2402089155104
19	6966	4.66	2.2402110738866
19	6967	4.67	2.2402132423227
19	6968	4.68	2.2402154201957
19	6969	4.69	2.240217606894
19	6970	4.7	2.2402198018161
19	7009	4.71	2.2402220043695
19	7044	4.72	2.2402242139734
19	7079	4.73	2.240226430056
19	7080	4.74	2.2402286520557
19	7081	4.75	2.2402308794208
19	7116	4.76	2.240233111609
19	7117	4.77	2.2402353480887
19	7118	4.78	2.2402375883367
19	7119	4.79	2.24023983184
19	7120	4.8	2.2402420780951
19	7159	4.81	2.2402443266076
19	7194	4.82	2.2402465768924
19	7229	4.83	2.2402488284733
19	7230	4.84	2.2402510808832
19	7231	4.85	2.2402533336645
19	7266	4.86	2.2402555863683
19	7267	4.87	2.2402578385543
19	7268	4.88	2.2402600897908
19	7269	4.89	2.2402623396556
19	7270	4.9	2.2402645877338
19	7309	4.91	2.2402668336199
19	7344	4.92	2.2402690769162
19	7379	4.93	2.2402713172339
19	7380	4.94	2.2402735541923
19	7381	4.95	2.2402757874184
19	7416	4.96	2.2402780165475
19	7417	4.97	2.2402802412228
19	7418	4.98	2.2402824610956
19	7419	4.99	2.2402846758251
19	7424	5	2.2402868850774
19	7463	5.01	2.2402890885271
19	7498	5.02	2.2402912858555
19	7533	5.03	2.240293476752
19	7534	5.04	2.2402956609128
19	7535	5.05	2.2402978380419
19	7570	5.06	2.2403000078502
19	7571	5.07	2.2403021700558
19	7572	5.08	2.2403043243843
19	7573	5.09	2.2403064705673
19	7574	5.1	2.2403086083436
19	7613	5.11	2.2403107374591
[...]
2	61436	55.23	931.55726268403
2	61437	55.24	931.69615168374
2	61438	55.25	931.83504068346
2	61457	55.26	931.97392968317
2	61458	55.27	932.11281868289
2	61459	55.28	932.2517076826
2	61460	55.29	932.39059668231
2	61461	55.3	932.52948568203
2	61464	55.31	932.66837468175
2	61465	55.32	932.80726368146
2	61484	55.33	932.94615268118
2	61485	55.34	933.0850416809
2	61486	55.35	933.22393068061
2	61505	55.36	933.36281968033
2	61506	55.37	933.50170868005
2	61507	55.38	933.64059767977
2	61508	55.39	933.77948667949
2	61509	55.4	933.91837567921
2	61512	55.41	934.05726467893
2	61513	55.42	934.19615367865
2	61532	55.43	934.33504267837
2	61533	55.44	934.47393167809
2	61534	55.45	934.61282067782
2	61553	55.46	934.75170967754
2	61554	55.47	934.89059867726
2	61555	55.48	935.02948767698
2	61556	55.49	935.16837667671
2	61557	55.5	935.30726567643
2	61560	55.51	935.44615467616
2	61561	55.52	935.58504367588
2	61580	55.53	935.72393267561
2	61581	55.54	935.86282167533
2	61582	55.55	936.00171067506
2	61601	55.56	936.14059967479
2	61602	55.57	936.27948867451
2	61603	55.58	936.41837767424
2	61604	55.59	936.55726667397
2	61605	55.6	936.6961556737
2	61608	55.61	936.83504467343
2	61609	55.62	936.97393367316
2	61628	55.63	937.11282267289
2	61629	55.64	937.25171167262
2	61630	55.65	937.39060067235
2	61649	55.66	937.52948967208
2	61650	55.67	937.66837867181
2	61651	55.68	937.80726767154
2	61652	55.69	937.94615667127
2	61653	55.7	938.08504567101
2	61656	55.71	938.22393467074
2	61657	55.72	938.36282367047
2	61676	55.73	938.50171267021
2	61677	55.74	938.64060166994
2	61678	55.75	938.77949066968
2	61697	55.76	938.91837966941
2	61698	55.77	939.05726866915
2	61699	55.78	939.19615766888
2	61700	55.79	939.33504666862
2	61701	55.8	939.47393566836
2	61704	55.81	939.61282466809
2	61705	55.82	939.75171366783
2	61724	55.83	939.89060266757
2	61725	55.84	940.02949166731
2	61726	55.85	940.16838066705
2	61745	55.86	940.30726966679
2	61746	55.87	940.44615866653
2	61747	55.88	940.58504766627
2	61748	55.89	940.72393666601
2	61749	55.9	940.86282566575
2	61752	55.91	941.00171466549
2	61753	55.92	941.14060366523
2	61772	55.93	941.27949266497
2	61773	55.94	941.41838166472
2	61774	55.95	941.55727066446
2	61793	55.96	941.6961596642
2	61794	55.97	941.83504866395
2	61795	55.98	941.97393766369
2	61796	55.99	942.11282666343
2	61799	56	942.25171566318
2	61802	56.01	942.39060466292
2	61803	56.02	942.52949366267
2	61822	56.03	942.66838266242
2	61823	56.04	942.80727166216
2	61824	56.05	942.94616066191
2	61843	56.06	943.08504966166
2	61844	56.07	943.2239386614
2	61845	56.08	943.36282766115
2	61846	56.09	943.5017166609
2	61847	56.1	943.64060566065
2	61850	56.11	943.7794946604
2	61851	56.12	943.91838366015
2	61870	56.13	944.0572726599
2	61871	56.14	944.19616165965
2	61872	56.15	944.3350506594
2	61891	56.16	944.47393965915
2	61892	56.17	944.6128286589
2	61893	56.18	944.75171765866
2	61894	56.19	944.89060665841
2	61895	56.2	945.02949565816
2	61898	56.21	945.16838465791
2	61899	56.22	945.30727365767
2	61918	56.23	945.44616265742
2	61919	56.24	945.58505165718
2	61920	56.25	945.72394065693
2	61939	56.26	945.86282965669
2	61940	56.27	946.00171865644
2	61941	56.28	946.1406076562
2	61942	56.29	946.27949665595
2	61943	56.3	946.41838565571
2	61946	56.31	946.55727465547
2	61947	56.32	946.69616365522
2	61966	56.33	946.83505265498
2	61967	56.34	946.97394165474
2	61968	56.35	947.1128306545
2	61987	56.36	947.25171965426
2	61988	56.37	947.39060865402
2	61989	56.38	947.52949765378
2	61990	56.39	947.66838665354
2	61991	56.4	947.8072756533
2	61994	56.41	947.94616465306
2	61995	56.42	948.08505365282
2	62014	56.43	948.22394265258
2	62015	56.44	948.36283165234
2	62016	56.45	948.5017206521
2	62035	56.46	948.64060965187
2	62036	56.47	948.77949865163
2	62037	56.48	948.91838765139
2	62038	56.49	949.05727665116
2	62039	56.5	949.19616565092
2	62042	56.51	949.33505465069
2	62043	56.52	949.47394365045
2	62062	56.53	949.61283265022
2	62063	56.54	949.75172164998
2	62064	56.55	949.89061064975
2	62083	56.56	950.02949964951
2	62084	56.57	950.16838864928
2	62085	56.58	950.30727764905
2	62086	56.59	950.44616664881
2	62087	56.6	950.58505564858
2	62090	56.61	950.72394464835
2	62091	56.62	950.86283364812
2	62110	56.63	951.00172264789
2	62111	56.64	951.14061164766
2	62112	56.65	951.27950064743
2	62131	56.66	951.4183896472
2	62132	56.67	951.55727864697
2	62133	56.68	951.69616764674
2	62134	56.69	951.83505664651
2	62135	56.7	951.97394564628
2	62138	56.71	952.11283464605
2	62139	56.72	952.25172364582
2	62158	56.73	952.3906126456
2	62159	56.74	952.52950164537
2	62160	56.75	952.66839064514
2	62179	56.76	952.80727964491
2	62180	56.77	952.94616864469
2	62181	56.78	953.08505764446
2	62182	56.79	953.22394664424
2	62183	56.8	953.36283564401
2	62186	56.81	953.50172464379
2	62187	56.82	953.64061364356
2	62206	56.83	953.77950264334
2	62207	56.84	953.91839164312
2	62208	56.85	954.05728064289
2	62227	56.86	954.19616964267
2	62228	56.87	954.33505864245
2	62229	56.88	954.47394764222
2	62230	56.89	954.612836642
2	62231	56.9	954.75172564178
2	62234	56.91	954.89061464156
2	62235	56.92	955.02950364134
2	62254	56.93	955.16839264112
2	62255	56.94	955.3072816409
2	62256	56.95	955.44617064068
2	62275	56.96	955.58505964046
2	62276	56.97	955.72394864024
2	62277	56.98	955.86283764002
2	62278	56.99	956.0017266398
2	62281	57	956.14061563958
2	62284	57.01	956.27950463937
2	62285	57.02	956.41839363915
2	62304	57.03	956.55728263893
2	62305	57.04	956.69617163871
2	62306	57.05	956.8350606385
2	62325	57.06	956.97394963828
2	62326	57.07	957.11283863806
2	62327	57.08	957.25172763785
2	62328	57.09	957.39061663763
2	62329	57.1	957.52950563742
2	62332	57.11	957.66839463721
2	62333	57.12	957.80728363699
2	62352	57.13	957.94617263678
2	62353	57.14	958.08506163656
2	62354	57.15	958.22395063635
2	62373	57.16	958.36283963614
2	62374	57.17	958.50172863593
2	62375	57.18	958.64061763571
2	62376	57.19	958.7795066355
2	62377	57.2	958.91839563529
2	62380	57.21	959.05728463508
2	62381	57.22	959.19617363487
2	62400	57.23	959.33506263466
2	62401	57.24	959.47395163445
2	62402	57.25	959.61284063424
2	62421	57.26	959.75172963403
2	62422	57.27	959.89061863382
2	62423	57.28	960.02950763361
2	62424	57.29	960.1683966334
2	62425	57.3	960.30728563319
2	62428	57.31	960.44617463299
2	62429	57.32	960.58506363278
2	62448	57.33	960.72395263257
2	62449	57.34	960.86284163236
2	62450	57.35	961.00173063216
2	62469	57.36	961.14061963195
2	62470	57.37	961.27950863174
2	62471	57.38	961.41839763154
2	62472	57.39	961.55728663133
2	62473	57.4	961.69617563113
2	62476	57.41	961.83506463092
2	62477	57.42	961.97395363072
2	62496	57.43	962.11284263052
2	62497	57.44	962.25173163031
2	62498	57.45	962.39062063011
2	62517	57.46	962.52950962991
2	62518	57.47	962.6683986297
2	62519	57.48	962.8072876295
2	62520	57.49	962.9461766293
2	62521	57.5	963.0850656291
2	62524	57.51	963.22395462889
2	62525	57.52	963.36284362869
2	62544	57.53	963.50173262849
2	62545	57.54	963.64062162829
2	62546	57.55	963.77951062809
2	62565	57.56	963.91839962789
2	62566	57.57	964.05728862769
2	62567	57.58	964.19617762749
2	62568	57.59	964.33506662729
2	62569	57.6	964.4739556271
2	62572	57.61	964.6128446269
2	62573	57.62	964.7517336267
2	62592	57.63	964.8906226265
2	62593	57.64	965.0295116263
2	62594	57.65	965.16840062611
2	62613	57.66	965.30728962591
2	62614	57.67	965.44617862571
2	62615	57.68	965.58506762552
2	62616	57.69	965.72395662532
2	62617	57.7	965.86284562513
2	62620	57.71	966.00173462493
2	62621	57.72	966.14062362474
2	62640	57.73	966.27951262454
2	62641	57.74	966.41840162435
2	62642	57.75	966.55729062415
2	62661	57.76	966.69617962396
2	62662	57.77	966.83506862377
2	62663	57.78	966.97395762357
2	62664	57.79	967.11284662338
2	62665	57.8	967.25173562319
2	62668	57.81	967.39062462299
2	62669	57.82	967.5295136228
2	62688	57.83	967.66840262261
2	62689	57.84	967.80729162242
2	62690	57.85	967.94618062223
2	62709	57.86	968.08506962204
2	62710	57.87	968.22395862185
2	62711	57.88	968.36284762166
2	62712	57.89	968.50173662147
2	62713	57.9	968.64062562128
2	62716	57.91	968.77951462109
2	62717	57.92	968.9184036209
2	62736	57.93	969.05729262071
2	62737	57.94	969.19618162052
2	62738	57.95	969.33507062033
2	62757	57.96	969.47395962015
2	62758	57.97	969.61284861996
2	62759	57.98	969.75173761977
2	62760	57.99	969.89062661958
2	62763	58	970.0295156194
2	62766	58.01	970.16840461921
2	62767	58.02	970.30729361903
2	62786	58.03	970.44618261884
2	62787	58.04	970.58507161865
2	62788	58.05	970.72396061847
2	62807	58.06	970.86284961828
2	62808	58.07	971.0017386181
2	62809	58.08	971.14062761791
2	62810	58.09	971.27951661773
2	62811	58.1	971.41840561755
2	62814	58.11	971.55729461736
2	62815	58.12	971.69618361718
2	62834	58.13	971.835072617
2	62835	58.14	971.97396161681
2	62836	58.15	972.11285061663
2	62855	58.16	972.25173961645
2	62856	58.17	972.39062861627
2	62857	58.18	972.52951761609
2	62858	58.19	972.66840661591
2	62859	58.2	972.80729561573
2	62862	58.21	972.94618461554
2	62863	58.22	973.08507361536
2	62882	58.23	973.22396261518
2	62883	58.24	973.362851615
2	62884	58.25	973.50174061482
2	62903	58.26	973.64062961465
2	62904	58.27	973.77951861447
2	62905	58.28	973.91840761429
2	62906	58.29	974.05729661411
2	62907	58.3	974.19618561393
2	62910	58.31	974.33507461375
2	62911	58.32	974.47396361358
2	62930	58.33	974.6128526134
2	62931	58.34	974.75174161322
2	62932	58.35	974.89063061304
2	62951	58.36	975.02951961287
2	62952	58.37	975.16840861269
2	62953	58.38	975.30729761252
2	62954	58.39	975.44618661234
2	62955	58.4	975.58507561217
2	62958	58.41	975.72396461199
2	62959	58.42	975.86285361182
2	62978	58.43	976.00174261164
2	62979	58.44	976.14063161147
2	62980	58.45	976.27952061129
2	62999	58.46	976.41840961112
2	63000	58.47	976.55729861095
2	63001	58.48	976.69618761077
2	63002	58.49	976.8350766106
2	63003	58.5	976.97396561043
2	63006	58.51	977.11285461025
2	63007	58.52	977.25174361008
2	63026	58.53	977.39063260991
2	63027	58.54	977.52952160974
2	63028	58.55	977.66841060957
2	63047	58.56	977.8072996094
2	63048	58.57	977.94618860923
2	63049	58.58	978.08507760906
2	63050	58.59	978.22396660889
2	63051	58.6	978.36285560872
2	63054	58.61	978.50174460855
2	63055	58.62	978.64063360838
2	63074	58.63	978.77952260821
2	63075	58.64	978.91841160804
2	63076	58.65	979.05730060787
2	63095	58.66	979.1961896077
2	63096	58.67	979.33507860753
2	63097	58.68	979.47396760736
2	63098	58.69	979.6128566072
2	63099	58.7	979.75174560703
2	63102	58.71	979.89063460686
2	63103	58.72	980.0295236067
2	63122	58.73	980.16841260653
2	63123	58.74	980.30730160636
2	63124	58.75	980.4461906062
2	63143	58.76	980.58507960603
2	63144	58.77	980.72396860587
2	63145	58.78	980.8628576057
2	63146	58.79	981.00174660554
2	63147	58.8	981.14063560537
2	63150	58.81	981.27952460521
2	63151	58.82	981.41841360504
2	63170	58.83	981.55730260488
2	63171	58.84	981.69619160471
2	63172	58.85	981.83508060455
2	63191	58.86	981.97396960439
2	63192	58.87	982.11285860422
2	63193	58.88	982.25174760406
2	63194	58.89	982.3906366039
2	63195	58.9	982.52952560374
2	63198	58.91	982.66841460358
2	63199	58.92	982.80730360341
2	63218	58.93	982.94619260325
2	63219	58.94	983.08508160309
2	63220	58.95	983.22397060293
2	63239	58.96	983.36285960277
2	63240	58.97	983.50174860261
2	63241	58.98	983.64063760245
2	63242	58.99	983.77952660229
2	63245	59	983.91841560213
2	63248	59.01	984.05730460197
2	63249	59.02	984.19619360181
2	63268	59.03	984.33508260165
2	63269	59.04	984.47397160149
2	63270	59.05	984.61286060133
2	63289	59.06	984.75174960118
2	63290	59.07	984.89063860102
2	63291	59.08	985.02952760086
2	63292	59.09	985.1684166007
2	63293	59.1	985.30730560055
2	63296	59.11	985.44619460039
2	63297	59.12	985.58508360023
2	63316	59.13	985.72397260008
2	63317	59.14	985.86286159992
2	63318	59.15	986.00175059976
2	63337	59.16	986.14063959961
2	63338	59.17	986.27952859945
2	63339	59.18	986.4184175993
2	63340	59.19	986.55730659914
2	63341	59.2	986.69619559899
2	63344	59.21	986.83508459883
2	63345	59.22	986.97397359868
2	63364	59.23	987.11286259852
2	63365	59.24	987.25175159837
2	63366	59.25	987.39064059822
2	63385	59.26	987.52952959806
2	63386	59.27	987.66841859791
2	63387	59.28	987.80730759776
2	63388	59.29	987.94619659761
2	63389	59.3	988.08508559745
2	63392	59.31	988.2239745973
2	63393	59.32	988.36286359715
2	63412	59.33	988.501752597
2	63413	59.34	988.64064159685
2	63414	59.35	988.77953059669
2	63433	59.36	988.91841959654
2	63434	59.37	989.05730859639
2	63435	59.38	989.19619759624
2	63436	59.39	989.33508659609
2	63437	59.4	989.47397559594
2	63440	59.41	989.61286459579
2	63441	59.42	989.75175359564
2	63460	59.43	989.89064259549
2	63461	59.44	990.02953159534
2	63462	59.45	990.1684205952
2	63481	59.46	990.30730959505
2	63482	59.47	990.4461985949
2	63483	59.48	990.58508759475
2	63484	59.49	990.7239765946
2	63485	59.5	990.86286559446
2	63488	59.51	991.00175459431
2	63489	59.52	991.14064359416
2	63508	59.53	991.27953259401
2	63509	59.54	991.41842159387
2	63510	59.55	991.55731059372
2	63529	59.56	991.69619959357
2	63530	59.57	991.83508859343
2	63531	59.58	991.97397759328
2	63532	59.59	992.11286659314
2	63533	59.6	992.25175559299
2	63536	59.61	992.39064459285
2	63537	59.62	992.5295335927
2	63556	59.63	992.66842259256
2	63557	59.64	992.80731159241
2	63558	59.65	992.94620059227
2	63577	59.66	993.08508959212
2	63578	59.67	993.22397859198
2	63579	59.68	993.36286759183
2	63580	59.69	993.50175659169
2	63581	59.7	993.64064559155
2	63584	59.71	993.77953459141
2	63585	59.72	993.91842359126
2	63604	59.73	994.05731259112
2	63605	59.74	994.19620159098
2	63606	59.75	994.33509059084
2	63625	59.76	994.47397959069
2	63626	59.77	994.61286859055
2	63627	59.78	994.75175759041
2	63628	59.79	994.89064659027
2	63629	59.8	995.02953559013
2	63632	59.81	995.16842458999
2	63633	59.82	995.30731358985
2	63652	59.83	995.44620258971
2	63653	59.84	995.58509158957
2	63654	59.85	995.72398058943
2	63673	59.86	995.86286958929
2	63674	59.87	996.00175858915
2	63675	59.88	996.14064758901
2	63676	59.89	996.27953658887
2	63677	59.9	996.41842558873
2	63680	59.91	996.55731458859
2	63681	59.92	996.69620358845
2	63700	59.93	996.83509258832
2	63701	59.94	996.97398158818
2	63702	59.95	997.11287058804
2	63721	59.96	997.2517595879
2	63722	59.97	997.39064858777
2	63723	59.98	997.52953758763
2	63724	59.99	997.66842658749
2	63727	60	997.80731558736
2	63730	60.01	997.94620458722
2	63731	60.02	998.08509358708
2	63750	60.03	998.22398258695
2	63751	60.04	998.36287158681
2	63752	60.05	998.50176058668
2	63771	60.06	998.64064958654
2	63772	60.07	998.77953858641
2	63773	60.08	998.91842758627
2	63774	60.09	999.05731658614
2	63775	60.1	999.196205586
2	63778	60.11	999.33509458587
2	63779	60.12	999.47398358573
2	63798	60.13	999.6128725856
2	63799	60.14	999.75176158547
2	63800	60.15	999.89065058533
2	63819	60.16	1000.0295395852
2	63820	60.17	1000.1684285851
2	63821	60.18	1000.3073175849
2	63822	60.19	1000.4462065848
2	63823	60.2	1000.5850955847
2	63826	60.21	1000.7239845845
2	63827	60.22	1000.8628735844
2	63846	60.23	1001.0017625843
2	63847	60.24	1001.1406515841
2	63848	60.25	1001.279540584
2	63867	60.26	1001.4184295839
2	63868	60.27	1001.5573185837
2	63869	60.28	1001.6962075836
2	63870	60.29	1001.8350965835
2	63871	60.3	1001.9739855834
2	63874	60.31	1002.1128745832
2	63875	60.32	1002.2517635831
2	63894	60.33	1002.390652583
2	63895	60.34	1002.5295415828
2	63896	60.35	1002.6684305827
2	63915	60.36	1002.8073195826
2	63916	60.37	1002.9462085824
2	63917	60.38	1003.0850975823
2	63918	60.39	1003.2239865822
2	63919	60.4	1003.3628755821
2	63922	60.41	1003.5017645819
2	63923	60.42	1003.6406535818
2	63942	60.43	1003.7795425817
2	63943	60.44	1003.9184315816
2	63944	60.45	1004.0573205814
2	63963	60.46	1004.1962095813
2	63964	60.47	1004.3350985812
2	63965	60.48	1004.473987581
2	63966	60.49	1004.6128765809
2	63967	60.5	1004.7517655808
2	63970	60.51	1004.8906545807
2	63971	60.52	1005.0295435805
2	63990	60.53	1005.1684325804
2	63991	60.54	1005.3073215803
2	63992	60.55	1005.4462105802
2	64011	60.56	1005.58509958
2	64012	60.57	1005.7239885799
2	64013	60.58	1005.8628775798
2	64014	60.59	1006.0017665797
2	64015	60.6	1006.1406555795
2	64018	60.61	1006.2795445794
2	64019	60.62	1006.4184335793
2	64038	60.63	1006.5573225792
2	64039	60.64	1006.696211579
2	64040	60.65	1006.8351005789
2	64059	60.66	1006.9739895788
2	64060	60.67	1007.1128785787
2	64061	60.68	1007.2517675786
2	64062	60.69	1007.3906565784
2	64063	60.7	1007.5295455783
2	64066	60.71	1007.6684345782
2	64067	60.72	1007.8073235781
2	64086	60.73	1007.9462125779
2	64087	60.74	1008.0851015778
2	64088	60.75	1008.2239905777
2	64107	60.76	1008.3628795776
2	64108	60.77	1008.5017685775
2	64109	60.78	1008.6406575773
2	64110	60.79	1008.7795465772
2	64111	60.8	1008.9184355771
2	64114	60.81	1009.057324577
2	64115	60.82	1009.1962135769
2	64134	60.83	1009.3351025767
2	64135	60.84	1009.4739915766
2	64136	60.85	1009.6128805765
2	64155	60.86	1009.7517695764
2	64156	60.87	1009.8906585763
2	64157	60.88	1010.0295475761
2	64158	60.89	1010.168436576
2	64159	60.9	1010.3073255759
2	64162	60.91	1010.4462145758
2	64163	60.92	1010.5851035757
2	64182	60.93	1010.7239925755
2	64183	60.94	1010.8628815754
2	64184	60.95	1011.0017705753
2	64203	60.96	1011.1406595752
2	64204	60.97	1011.2795485751
2	64205	60.98	1011.418437575
2	64206	60.99	1011.5573265748
2	64209	61	1011.6962155747
2	64212	61.01	1011.8351045746
2	64213	61.02	1011.9739935745
2	64232	61.03	1012.1128825744
2	64233	61.04	1012.2517715743
2	64234	61.05	1012.3906605741
2	64253	61.06	1012.529549574
2	64254	61.07	1012.6684385739
2	64255	61.08	1012.8073275738
2	64256	61.09	1012.9462165737
2	64257	61.1	1013.0851055736
2	64260	61.11	1013.2239945734
2	64261	61.12	1013.3628835733
2	64280	61.13	1013.5017725732
2	64281	61.14	1013.6406615731
2	64282	61.15	1013.779550573
2	64301	61.16	1013.9184395729
2	64302	61.17	1014.0573285728
2	64303	61.18	1014.1962175726
2	64304	61.19	1014.3351065725
2	64305	61.2	1014.4739955724
2	64308	61.21	1014.6128845723
2	64309	61.22	1014.7517735722
2	64328	61.23	1014.8906625721
2	64329	61.24	1015.029551572
2	64330	61.25	1015.1684405719
2	64349	61.26	1015.3073295717
2	64350	61.27	1015.4462185716
2	64351	61.28	1015.5851075715
2	64352	61.29	1015.7239965714
2	64353	61.3	1015.8628855713
2	64356	61.31	1016.0017745712
2	64357	61.32	1016.1406660221
2	64368	61.33	1016.2795647778
2	64369	61.34	1016.4184755972
2	64370	61.35	1016.5574031456
2	64371	61.36	1016.6963519969
2	64372	61.37	1016.8353266355
2	64373	61.38	1016.9743314577
2	64374	61.39	1017.1133707735
2	64375	61.4	1017.2524488086
2	64377	61.41	1017.3915697058
2	64378	61.42	1017.5307375265
2	64389	61.43	1017.6699562528
2	64390	61.44	1017.8092297883
2	64391	61.45	1017.9485619604
2	64392	61.46	1018.0879565212
2	64393	61.47	1018.2274171495
2	64394	61.48	1018.3669474518
2	64395	61.49	1018.5065509638
2	64396	61.5	1018.646231152
2	64398	61.51	1018.785991415
2	64399	61.52	1018.9258350845
2	64410	61.53	1019.0657654273
2	64411	61.54	1019.2057856456
2	64412	61.55	1019.3458988793
2	64413	61.56	1019.4861082064
2	64414	61.57	1019.6264166448
2	64415	61.58	1019.766827153
2	64416	61.59	1019.9073426316
2	64417	61.6	1020.0479659244
2	64419	61.61	1020.1886998192
2	64420	61.62	1020.3295470495
2	64431	61.63	1020.4705102949
2	64432	61.64	1020.6115921824
2	64433	61.65	1020.7527952879
2	64434	61.66	1020.8941221364
2	64435	61.67	1021.0355752036
2	64436	61.68	1021.1771569165
2	64437	61.69	1021.3188696547
2	64438	61.7	1021.4607157509
2	64440	61.71	1021.6026974923
2	64441	61.72	1021.7448171211
2	64452	61.73	1021.8870768356
2	64453	61.74	1022.029478791
2	64454	61.75	1022.1720251002
2	64455	61.76	1022.3147178347
2	64456	61.77	1022.4575590254
2	64457	61.78	1022.6005506634
2	64458	61.79	1022.7436947006
2	64459	61.8	1022.8869930508
2	64461	61.81	1023.0304475902
2	64462	61.82	1023.1740601582
2	64473	61.83	1023.3178325583
2	64474	61.84	1023.4617665583
2	64475	61.85	1023.6058638917
2	64476	61.86	1023.7501262577
2	64477	61.87	1023.8945553225
2	64478	61.88	1024.0391527193
2	64479	61.89	1024.1839200495
2	64480	61.9	1024.328858883
2	64482	61.91	1024.473970759
2	64483	61.92	1024.6192571865
2	64494	61.93	1024.7647196448

