version 3
run OvertakeNoGui-248-20241104-10:04:15-91705
attr configname OvertakeNoGui
attr datetime 20241104-10:04:15
attr datetimef 20241104-100415
attr experiment OvertakeNoGui
attr inifile omnetpp.ini
attr iterationvars "$leaderHeadway=1.2, $leaderSpeed=50, $controller=0, $pCSpeed=56, $pDeltaC=504"
attr iterationvarsd leaderHeadway=1.2/leaderSpeed=50/controller=0/pCSpeed=56/pDeltaC=504
attr iterationvarsf leaderHeadway=1.2,leaderSpeed=50,controller=0,pCSpeed=56,pDeltaC=504-
attr measurement "$leaderHeadway=1.2, $leaderSpeed=50, $controller=0, $pCSpeed=56, $pDeltaC=504"
attr network Overtake
attr processid 91705
attr repetition 0
attr replication #0
attr resultdir results
attr runnumber 248
attr seedset 0
itervar controller 0
itervar leaderHeadway 1.2
itervar leaderSpeed 50
itervar pCSpeed 56
itervar pDeltaC 504
config image-path ../../../../veins/images;../../images
config *.manager.command "\"sumo\""
config *.manager.ignoreGuiCommands true
config *.node[*].scenario_type "\"OvertakeScenario\""
config output-vector-file results/OvertakeNoGui_56_504_0.vec
config output-scalar-file results/OvertakeNoGui_56_504_0.sca
config cmdenv-express-mode false
config cmdenv-autoflush true
config cmdenv-status-frequency 10s
config num-rngs 6
config cmdenv-output-file log.txt
config cmdenv-redirect-output true
config network Overtake
config debug-on-errors true
config print-undisposed true
config *.playgroundSizeX 65000m
config *.playgroundSizeY 25000m
config *.playgroundSizeZ 50m
config sim-time-limit "360 s"
config *.annotations.draw false
config *.obstacles.debug false
config *.world.useTorus false
config *.world.use2D false
config *.manager.updateInterval 0.01s
config *.manager.host "\"localhost\""
config *.manager.moduleType "\"vtypeauto=org.car2x.plexe.PlatoonCar vtypehuman=0\""
config *.manager.moduleName "\"vtypeauto=node vtypehuman=0\""
config *.manager.moduleDisplayString "\"\""
config *.manager.autoShutdown true
config *.manager.margin 25
config *.manager.order -1
config *.connectionManager.sendDirect true
config *.connectionManager.maxInterfDist 2600m
config *.connectionManager.drawMaxIntfDist false
config *.**.nic.mac1609_4.useServiceChannel false
config *.**.nic.mac1609_4.txPower 100mW
config *.**.nic.mac1609_4.bitrate 6Mbps
config *.**.nic.mac1609_4.useAcks true
config *.**.nic.mac1609_4.ackErrorRate 0.0
config *.**.nic.mac1609_4.frameErrorRate 0.0
config *.**.nic.phy80211p.minPowerLevel -94dBm
config *.**.nic.phy80211p.maxTXPower 100mW
config *.**.nic.phy80211p.useNoiseFloor true
config *.**.nic.phy80211p.noiseFloor -95dBm
config *.**.nic.phy80211p.decider "xmldoc(\"config.xml\")"
config *.**.nic.phy80211p.analogueModels "xmldoc(\"config.xml\")"
config *.**.nic.phy80211p.usePropagationDelay true
config *.node[*].mobility.x 0
config *.node[*].mobility.y 0
config *.node[*].mobility.z 1.895
config *.shockwave[*].mobility.x 0
config *.shockwave[*].mobility.y 0
config *.shockwave[*].mobility.z 1.895
config seed-set 0
config **.seed 0
config *.node[*].prot.rng-0 2
config *.node[*].appl.rng-0 3
config *.node[*].scenario.rng-0 4
config *.manager.configFile "\"./sumocfg/overtake.sumo.cfg\""
config *.manager.launchConfig "xmldoc(\"./sumocfg/overtake.launchd.xml\")"
config *.node[*].helper_type "\"PositionHelper\""
config *.node[*].scenario.caccC1 0.5
config *.node[*].scenario.caccXi 1
config *.node[*].scenario.caccOmegaN "0.2 Hz"
config *.node[*].scenario.caccSpacing "5 m"
config *.node[*].scenario.engineTau "0.5 s"
config *.node[*].scenario.ploegH "0.5 s"
config *.node[*].scenario.ploegKp 0.2
config *.node[*].scenario.ploegKd 0.7
config *.node[*].scenario.useRealisticEngine false
config *.node[*].scenario.targetController "\"CACC\""
config *.node[*].scenario.accHeadway "0.1 s"
config *.node[*].scenario.leaderHeadway "1.2 s"
config *.node[*].scenario.leaderSpeed "50 kmph"
config *.node[*].appl_type "\"OvertakeApp\""
config *.node[*].appl.*.scalar-recording true
config *.node[*].appl.*.vector-recording true
config *.node[*].appl.overtakeManeuver "\"OvertakeManeuver\""
config *.node[*].protocol_type "\"SimplePlatooningBeaconing\""
config *.node[*].prot.*.scalar-recording true
config *.node[*].prot.*.vector-recording true
config *.node[*].prot.beaconingInterval "0.1 s"
config *.node[*].prot.priority 4
config *.node[*].prot.packetSize 200
config *.node[*].prot.useControllerAcceleration true
config **.traffic_type "\"OvertakeTrafficManager\""
config **.traffic.platoonInsertTime "0.1 s"
config **.traffic.platooningVType "\"vtypeauto\""
config **.numericController 0
config **.traffic.platoonInsertDistance 5m
config **.traffic.platoonInsertHeadway 0s
config **.traffic.platoonLeaderHeadway 1.2s
config **.traffic.platoonASpeed 50kmph
config **.traffic.platoonBSpeed 100kmph
config **.traffic.platoonCSpeed 56kmph
config **.traffic.platoonSizeA 2
config **.traffic.platoonSizeB 1
config **.traffic.platoonSizeC 1
config **.traffic.initialPositionDeltaA 150
config **.traffic.initialPositionDeltaB 50
config **.traffic.initialPositionDeltaC 504
config **.traffic.controller "\"CACC\""
config **.scalar-recording true
config **.vector-recording true

vector 0 Overtake.node[0].mobility posx ETV
vector 1 Overtake.node[0].mobility posy ETV
vector 2 Overtake.node[1].mobility posx ETV
vector 3 Overtake.node[1].mobility posy ETV
vector 4 Overtake.node[2].mobility posx ETV
vector 5 Overtake.node[2].mobility posy ETV
vector 6 Overtake.node[3].mobility posx ETV
vector 7 Overtake.node[3].mobility posy ETV
vector 8 Overtake.node[0].mobility speed ETV
vector 9 Overtake.node[1].mobility speed ETV
vector 10 Overtake.node[2].mobility speed ETV
vector 11 Overtake.node[3].mobility speed ETV
vector 12 Overtake.node[0].mobility acceleration ETV
vector 13 Overtake.node[0].mobility co2emission ETV
vector 14 Overtake.node[1].mobility acceleration ETV
vector 15 Overtake.node[1].mobility co2emission ETV
vector 16 Overtake.node[2].mobility acceleration ETV
vector 17 Overtake.node[2].mobility co2emission ETV
vector 18 Overtake.node[3].mobility acceleration ETV
vector 19 Overtake.node[3].mobility co2emission ETV
vector 20 Overtake.node[0].appl distance ETV
vector 21 Overtake.node[0].appl relativeSpeed ETV
vector 22 Overtake.node[0].appl nodeId ETV
vector 23 Overtake.node[0].appl acceleration ETV
vector 24 Overtake.node[0].appl controllerAcceleration ETV
vector 25 Overtake.node[0].appl speed ETV
vector 26 Overtake.node[0].appl posx ETV
vector 27 Overtake.node[0].appl posy ETV
vector 28 Overtake.node[1].appl distance ETV
vector 29 Overtake.node[1].appl relativeSpeed ETV
vector 30 Overtake.node[1].appl nodeId ETV
vector 31 Overtake.node[1].appl acceleration ETV
vector 32 Overtake.node[1].appl controllerAcceleration ETV
vector 33 Overtake.node[1].appl speed ETV
vector 34 Overtake.node[1].appl posx ETV
vector 35 Overtake.node[1].appl posy ETV
vector 36 Overtake.node[2].appl distance ETV
vector 37 Overtake.node[2].appl relativeSpeed ETV
vector 38 Overtake.node[2].appl nodeId ETV
vector 39 Overtake.node[2].appl acceleration ETV
vector 40 Overtake.node[2].appl controllerAcceleration ETV
vector 41 Overtake.node[2].appl speed ETV
vector 42 Overtake.node[2].appl posx ETV
vector 43 Overtake.node[2].appl posy ETV
vector 44 Overtake.node[3].appl distance ETV
vector 45 Overtake.node[3].appl relativeSpeed ETV
vector 46 Overtake.node[3].appl nodeId ETV
vector 47 Overtake.node[3].appl acceleration ETV
vector 48 Overtake.node[3].appl controllerAcceleration ETV
vector 49 Overtake.node[3].appl speed ETV
vector 50 Overtake.node[3].appl posx ETV
vector 51 Overtake.node[3].appl posy ETV
vector 52 Overtake.node[1].prot leaderDelay ETV
vector 53 Overtake.node[1].prot leaderDelayId ETV
vector 54 Overtake.node[1].prot frontDelay ETV
vector 55 Overtake.node[1].prot frontDelayId ETV
vector 56 Overtake.node[0].prot nodeId ETV
vector 57 Overtake.node[0].prot busyTime ETV
vector 58 Overtake.node[0].prot collisions ETV
vector 59 Overtake.node[1].prot nodeId ETV
vector 60 Overtake.node[1].prot busyTime ETV
vector 61 Overtake.node[1].prot collisions ETV
vector 62 Overtake.node[2].prot nodeId ETV
vector 63 Overtake.node[2].prot busyTime ETV
vector 64 Overtake.node[2].prot collisions ETV
vector 65 Overtake.node[3].prot nodeId ETV
vector 66 Overtake.node[3].prot busyTime ETV
vector 67 Overtake.node[3].prot collisions ETV
48	26	0.21	-0.00437036
48	176	0.31	-0.00426837
48	326	0.41	-0.00410815
48	476	0.51	-0.00390303
48	626	0.61	-0.00366476
48	776	0.71	-0.00340356
48	926	0.81	-0.00312825
48	1076	0.91	-0.00284628
48	1230	1.01	-0.00256392
48	1381	1.11	-0.0022863
48	1532	1.21	-0.00201755
48	1683	1.31	-0.00176089
48	2046	1.41	-0.00151876
48	2196	1.51	-0.00129289
48	2346	1.61	-0.00108441
48	2496	1.71	-0.00089393
48	2646	1.81	-0.000721638
48	2796	1.91	-0.000567355
48	2950	2.01	-0.000430614
48	3100	2.11	-0.000310715
48	3250	2.21	-0.000206783
48	3400	2.31	-0.000117814
48	3763	2.41	-4.27149e-05
48	3914	2.51	1.96584e-05
48	4064	2.61	7.04736e-05
48	4214	2.71	0.000110896
48	4364	2.81	0.000142067
48	4514	2.91	0.00016509
48	4668	3.01	0.000181016
48	4818	3.11	0.000190834
48	4968	3.21	0.000195466
48	5118	3.31	0.00019576
48	5269	3.41	0.000192489
48	5676	3.51	0.000186354
48	5826	3.61	0.000177979
48	5976	3.71	0.000167916
48	6126	3.81	0.000156649
48	6276	3.91	0.000144597
48	6430	4.01	0.000132116
48	6580	4.11	0.000119508
48	6730	4.21	0.000107021
48	6880	4.31	9.48587e-05
48	7030	4.41	8.31796e-05
48	7393	4.51	7.21068e-05
48	7544	4.61	6.17299e-05
48	7694	4.71	5.21101e-05
48	7844	4.81	4.32839e-05
48	7994	4.91	3.52669e-05
48	8148	5.01	2.80577e-05
48	8298	5.11	2.16404e-05
48	8448	5.21	1.59878e-05
48	8598	5.31	1.1064e-05
48	8748	5.41	6.82631e-06
48	8899	5.51	3.22748e-06
48	9262	5.61	2.17308e-07
48	9412	5.71	-2.25598e-06
48	9562	5.81	-4.24448e-06
48	9712	5.91	-5.79961e-06
48	9866	6.01	-6.97134e-06
48	10016	6.11	-7.80753e-06
48	10166	6.21	-8.35346e-06
48	10316	6.31	-8.65149e-06
48	10466	6.41	-8.7408e-06
48	10616	6.51	-8.6573e-06
48	11023	6.61	-8.43352e-06
48	11174	6.71	-8.09868e-06
48	11324	6.81	-7.67874e-06
48	11474	6.91	-7.19651e-06
48	11628	7.01	-6.67185e-06
48	11778	7.11	-6.12177e-06
48	11928	7.21	-5.56072e-06
48	12078	7.31	-5.00073e-06
48	12228	7.41	-4.45164e-06
48	12378	7.51	-3.92136e-06
48	12529	7.61	-3.41601e-06
48	12892	7.71	-2.94018e-06
48	13042	7.81	-2.4971e-06
48	13192	7.91	-2.08883e-06
48	13346	8.01	-1.71644e-06
48	13496	8.11	-1.38016e-06
48	13646	8.21	-1.07955e-06
48	13796	8.31	-8.13576e-07
48	13946	8.41	-5.80794e-07
48	14096	8.51	-3.79414e-07
48	14246	8.61	-2.07407e-07
48	14609	8.71	-6.25821e-08
48	14760	8.81	5.73475e-08
48	14910	8.91	1.54703e-07
48	15064	9.01	2.31794e-07
48	15214	9.11	2.90877e-07
48	15364	9.21	3.3413e-07
48	15514	9.31	3.63618e-07
48	15664	9.41	3.81288e-07
48	15814	9.51	3.88944e-07
48	15964	9.61	3.88249e-07
48	16115	9.71	3.80715e-07
48	16522	9.81	3.67706e-07
48	16672	9.91	3.50439e-07
48	16826	10.01	3.29989e-07
48	16976	10.11	3.07294e-07
48	17126	10.21	2.83164e-07
48	17276	10.31	2.58291e-07
48	17426	10.41	2.33254e-07
48	17576	10.51	2.0853e-07
48	17726	10.61	1.84509e-07
48	17876	10.71	1.61493e-07
48	18239	10.81	1.39716e-07
48	18390	10.91	1.19345e-07
48	18544	11.01	1.00494e-07
48	18694	11.11	8.32262e-08
48	18844	11.21	6.7568e-08
48	18994	11.31	5.35112e-08
48	19144	11.41	4.10198e-08
48	19294	11.51	3.00368e-08
48	19444	11.61	2.04881e-08
48	19594	11.71	1.22876e-08
48	19745	11.81	5.33973e-09
48	20108	11.91	-4.55636e-10
48	20262	12.01	-5.20171e-09
48	20412	12.11	-9.00169e-09
48	20562	12.21	-1.19577e-08
48	20712	12.31	-1.41682e-08
48	20862	12.41	-1.57275e-08
48	21012	12.51	-1.67244e-08
48	21162	12.61	-1.72424e-08
48	21312	12.71	-1.7358e-08
48	21462	12.81	-1.71415e-08
48	21845	12.91	-1.66565e-08
48	22000	13.01	-1.59599e-08
48	22150	13.11	-1.51022e-08
48	22300	13.21	-1.41277e-08
48	22450	13.31	-1.30749e-08
48	22600	13.41	-1.19766e-08
48	22750	13.51	-1.08608e-08
48	22900	13.61	-9.75078e-09
48	23050	13.71	-8.66525e-09
48	23200	13.81	-7.61933e-09
48	23351	13.91	-6.62457e-09
48	23738	14.01	-5.68967e-09
48	23888	14.11	-4.82068e-09
48	24038	14.21	-4.02149e-09
48	24188	14.31	-3.29354e-09
48	24338	14.41	-2.63736e-09
48	24488	14.51	-2.05187e-09
48	24638	14.61	-1.53459e-09
48	24788	14.71	-1.08287e-09
48	24938	14.81	-6.92779e-10
48	25088	14.91	-3.60245e-10
48	25242	15.01	-8.11795e-11
48	25392	15.11	1.49392e-10
48	25542	15.21	3.35731e-10
48	25692	15.31	4.82636e-10
48	25842	15.41	5.94369e-10
48	25992	15.51	6.75549e-10
48	26142	15.61	7.29905e-10
48	26292	15.71	7.61524e-10
48	26442	15.81	7.73781e-10
48	26592	15.91	7.69873e-10
48	26746	16.01	7.5282e-10
48	26896	16.11	7.25464e-10
48	27046	16.21	6.89937e-10
48	27196	16.31	6.4837e-10
48	27346	16.41	6.02718e-10
48	27496	16.51	5.54401e-10
48	27646	16.61	5.05018e-10
48	27796	16.71	4.5528e-10
48	27946	16.81	4.06253e-10
48	28096	16.91	3.58824e-10
48	28250	17.01	3.13527e-10
48	28400	17.11	2.70717e-10
48	28550	17.21	2.30749e-10
48	28700	17.31	1.93801e-10
48	28850	17.41	1.6005e-10
48	29000	17.51	1.29496e-10
48	29150	17.61	1.02141e-10
48	29300	17.71	7.78044e-11
48	29450	17.81	5.64881e-11
48	29600	17.91	3.8014e-11
48	29754	18.01	2.20268e-11
48	29904	18.11	8.70415e-12
48	30054	18.21	-2.4869e-12
48	30204	18.31	-1.1724e-11
48	30354	18.41	-1.88294e-11
48	30504	18.51	-2.45137e-11
48	30654	18.61	-2.8777e-11
48	30804	18.71	-3.16192e-11
48	30954	18.81	-3.33955e-11
48	31104	18.91	-3.42837e-11
48	31258	19.01	-3.44613e-11
48	31408	19.11	-3.39284e-11
48	31558	19.21	-3.28626e-11
48	31708	19.31	-3.14415e-11
48	31858	19.41	-2.98428e-11
48	32008	19.51	-2.78888e-11
48	32158	19.61	-2.57572e-11
48	32308	19.71	-2.34479e-11
48	32458	19.81	-2.13163e-11
48	32608	19.91	-1.91847e-11
48	32762	20.01	-1.7053e-11
48	32912	20.11	-1.49214e-11
48	33062	20.21	-1.3145e-11
48	33212	20.31	-1.13687e-11
48	33362	20.41	-9.76996e-12
48	33512	20.51	-8.52651e-12
48	33662	20.61	-7.28306e-12
48	33812	20.71	-6.03961e-12
48	33962	20.81	-5.15143e-12
48	34112	20.91	-4.26326e-12
48	34266	21.01	-3.37508e-12
48	34416	21.11	-2.66454e-12
48	34566	21.21	-1.95399e-12
48	34716	21.31	-1.24345e-12
48	34866	21.41	-7.10543e-13
48	35016	21.51	-3.55271e-13
48	35166	21.61	1.77636e-13
48	35316	21.71	5.32907e-13
48	35466	21.81	8.88178e-13
48	35616	21.91	1.24345e-12
48	35770	22.01	1.59872e-12
48	35920	22.11	1.77636e-12
48	36070	22.21	2.13163e-12
48	36220	22.31	2.30926e-12
48	36370	22.41	2.4869e-12
48	36520	22.51	2.66454e-12
48	36670	22.61	2.84217e-12
48	36820	22.71	3.01981e-12
48	36970	22.81	3.19744e-12
48	37120	22.91	3.37508e-12
48	37274	23.01	3.37508e-12
48	37424	23.11	3.55271e-12
48	37574	23.21	3.55271e-12
48	37724	23.31	3.73035e-12
48	37874	23.41	3.73035e-12
48	38024	23.51	3.73035e-12
48	38174	23.61	3.90799e-12
48	38324	23.71	3.90799e-12
48	38474	23.81	3.90799e-12
48	38624	23.91	4.08562e-12
48	38778	24.01	4.08562e-12
48	38928	24.11	4.08562e-12
48	39078	24.21	4.08562e-12
48	39228	24.31	4.08562e-12
48	39378	24.41	4.26326e-12
48	39528	24.51	4.26326e-12
48	39678	24.61	4.26326e-12
48	39828	24.71	4.26326e-12
48	39978	24.81	4.26326e-12
48	40128	24.91	4.26326e-12
48	40282	25.01	4.26326e-12
48	40432	25.11	4.26326e-12
48	40582	25.21	4.26326e-12
48	40732	25.31	4.26326e-12
48	40882	25.41	4.44089e-12
48	41032	25.51	4.44089e-12
48	41182	25.61	4.44089e-12
48	41333	25.71	4.44089e-12
48	41483	25.81	4.44089e-12
48	41633	25.91	4.44089e-12
48	41787	26.01	4.44089e-12
48	41937	26.11	4.44089e-12
48	42087	26.21	4.44089e-12
48	42237	26.31	4.44089e-12
48	42387	26.41	4.44089e-12
48	42537	26.51	4.44089e-12
48	42687	26.61	4.44089e-12
48	42837	26.71	4.44089e-12
48	42987	26.81	4.44089e-12
48	43137	26.91	4.44089e-12
48	43291	27.01	4.44089e-12
48	43441	27.11	4.44089e-12
48	43591	27.21	4.44089e-12
48	43741	27.31	4.44089e-12
48	43891	27.41	4.44089e-12
48	44041	27.51	4.44089e-12
48	44191	27.61	4.44089e-12
48	44341	27.71	4.44089e-12
48	44491	27.81	4.44089e-12
48	44641	27.91	4.44089e-12
48	44795	28.01	4.44089e-12
48	44945	28.11	4.44089e-12
48	45095	28.21	4.44089e-12
48	45245	28.31	4.44089e-12
48	45395	28.41	4.44089e-12
48	45545	28.51	4.44089e-12
48	45695	28.61	4.44089e-12
48	45845	28.71	4.44089e-12
48	45995	28.81	4.44089e-12
48	46145	28.91	4.44089e-12
48	46299	29.01	4.44089e-12
48	46449	29.11	4.44089e-12
48	46599	29.21	4.44089e-12
48	46749	29.31	4.44089e-12
48	46899	29.41	4.44089e-12
48	47049	29.51	4.44089e-12
48	47199	29.61	4.44089e-12
48	47349	29.71	4.44089e-12
48	47499	29.81	4.44089e-12
48	47649	29.91	4.44089e-12
48	47803	30.01	4.44089e-12
48	47953	30.11	4.44089e-12
48	48103	30.21	4.44089e-12
48	48253	30.31	4.44089e-12
48	48403	30.41	4.44089e-12
48	48553	30.51	4.44089e-12
48	48703	30.61	4.44089e-12
48	48853	30.71	4.44089e-12
48	49003	30.81	4.44089e-12
48	49153	30.91	4.44089e-12
48	49307	31.01	4.44089e-12
48	49457	31.11	4.44089e-12
48	49607	31.21	4.44089e-12
48	49757	31.31	4.44089e-12
48	49907	31.41	4.44089e-12
48	50057	31.51	4.44089e-12
48	50207	31.61	4.44089e-12
48	50357	31.71	4.44089e-12
48	50507	31.81	4.44089e-12
48	50657	31.91	4.44089e-12
47	26	0.21	-0.000716383
47	176	0.31	-0.00136341
47	326	0.41	-0.00186974
47	476	0.51	-0.00225157
47	626	0.61	-0.00252443
47	776	0.71	-0.00270298
47	926	0.81	-0.00280098
47	1076	0.91	-0.00283113
47	1230	1.01	-0.00280509
47	1381	1.11	-0.00273342
47	1532	1.21	-0.00262559
47	1683	1.31	-0.00249005
47	2046	1.41	-0.00233419
47	2196	1.51	-0.00216447
47	2346	1.61	-0.00198642
47	2496	1.71	-0.00180472
47	2646	1.81	-0.0016233
47	2796	1.91	-0.00144536
47	2950	2.01	-0.00127346
47	3100	2.11	-0.0011096
47	3250	2.21	-0.000955278
47	3400	2.31	-0.000811546
47	3763	2.41	-0.00067908
47	3914	2.51	-0.000558232
47	4064	2.61	-0.000449082
47	4214	2.71	-0.000351487
47	4364	2.81	-0.00026512
47	4514	2.91	-0.000189514
47	4668	3.01	-0.000124092
47	4818	3.11	-6.81972e-05
47	4968	3.21	-2.11209e-05
47	5118	3.31	1.78769e-05
47	5269	3.41	4.9548e-05
47	5676	3.51	7.46407e-05
47	5826	3.61	9.38867e-05
47	5976	3.71	0.000107991
47	6126	3.81	0.000117625
47	6276	3.91	0.000123418
47	6430	4.01	0.000125957
47	6580	4.11	0.000125781
47	6730	4.21	0.00012338
47	6880	4.31	0.000119198
47	7030	4.41	0.000113629
47	7393	4.51	0.000107022
47	7544	4.61	9.96832e-05
47	7694	4.71	9.18747e-05
47	7844	4.81	8.38211e-05
47	7994	4.91	7.57109e-05
47	8148	5.01	6.76999e-05
47	8298	5.11	5.99137e-05
47	8448	5.21	5.24518e-05
47	8598	5.31	4.53896e-05
47	8748	5.41	3.87821e-05
47	8899	5.51	3.2666e-05
47	9262	5.61	2.70628e-05
47	9412	5.71	2.19809e-05
47	9562	5.81	1.74176e-05
47	9712	5.91	1.33618e-05
47	9866	6.01	9.79494e-06
47	10016	6.11	6.6932e-06
47	10166	6.21	4.02864e-06
47	10316	6.31	1.77051e-06
47	10466	6.41	-1.13691e-07
47	10616	6.51	-1.65735e-06
47	11023	6.61	-2.89397e-06
47	11174	6.71	-3.85652e-06
47	11324	6.81	-4.57698e-06
47	11474	6.91	-5.08591e-06
47	11628	7.01	-5.41219e-06
47	11778	7.11	-5.58279e-06
47	11928	7.21	-5.6226e-06
47	12078	7.31	-5.55442e-06
47	12228	7.41	-5.39886e-06
47	12378	7.51	-5.17441e-06
47	12529	7.61	-4.89748e-06
47	12892	7.71	-4.58246e-06
47	13042	7.81	-4.24184e-06
47	13192	7.91	-3.88634e-06
47	13346	8.01	-3.52499e-06
47	13496	8.11	-3.16534e-06
47	13646	8.21	-2.81353e-06
47	13796	8.31	-2.47446e-06
47	13946	8.41	-2.15192e-06
47	14096	8.51	-1.84873e-06
47	14246	8.61	-1.56685e-06
47	14609	8.71	-1.30751e-06
47	14760	8.81	-1.0713e-06
47	14910	8.91	-8.58321e-07
47	15064	9.01	-6.68206e-07
47	15214	9.11	-5.0026e-07
47	15364	9.21	-3.53514e-07
47	15514	9.31	-2.2679e-07
47	15664	9.41	-1.18765e-07
47	15814	9.51	-2.80163e-08
47	15964	9.61	4.69315e-08
47	16115	9.71	1.07573e-07
47	16522	9.81	1.55391e-07
47	16672	9.91	1.91831e-07
47	16826	10.01	2.18284e-07
47	16976	10.11	2.3607e-07
47	17126	10.21	2.46426e-07
47	17276	10.31	2.50502e-07
47	17426	10.41	2.49352e-07
47	17576	10.51	2.43937e-07
47	17726	10.61	2.35119e-07
47	17876	10.71	2.23669e-07
47	18239	10.81	2.10264e-07
47	18390	10.91	1.95496e-07
47	18544	11.01	1.79874e-07
47	18694	11.11	1.63833e-07
47	18844	11.21	1.47736e-07
47	18994	11.31	1.3188e-07
47	19144	11.41	1.16507e-07
47	19294	11.51	1.01806e-07
47	19444	11.61	8.7921e-08
47	19594	11.71	7.49532e-08
47	19745	11.81	6.29706e-08
47	20108	11.91	5.20114e-08
47	20262	12.01	4.20881e-08
47	20412	12.11	3.31928e-08
47	20562	12.21	2.53001e-08
47	20712	12.31	1.83714e-08
47	20862	12.41	1.23581e-08
47	21012	12.51	7.2033e-09
47	21162	12.61	2.84555e-09
47	21312	12.71	-7.80176e-10
47	21462	12.81	-3.74065e-09
47	21845	12.91	-6.10232e-09
47	22000	13.01	-7.93019e-09
47	22150	13.11	-9.2875e-09
47	22300	13.21	-1.02345e-08
47	22450	13.31	-1.08278e-08
47	22600	13.41	-1.11202e-08
47	22750	13.51	-1.11603e-08
47	22900	13.61	-1.09935e-08
47	23050	13.71	-1.06596e-08
47	23200	13.81	-1.01943e-08
47	23351	13.91	-9.62999e-09
47	23738	14.01	-8.99423e-09
47	23888	14.11	-8.31104e-09
47	24038	14.21	-7.60174e-09
47	24188	14.31	-6.88321e-09
47	24338	14.41	-6.17053e-09
47	24488	14.51	-5.47526e-09
47	24638	14.61	-4.80682e-09
47	24788	14.71	-4.17213e-09
47	24938	14.81	-3.57652e-09
47	25088	14.91	-3.02407e-09
47	25242	15.01	-2.51639e-09
47	25392	15.11	-2.05471e-09
47	25542	15.21	-1.63922e-09
47	25692	15.31	-1.26885e-09
47	25842	15.41	-9.42357e-10
47	25992	15.51	-6.57607e-10
47	26142	15.61	-4.12115e-10
47	26292	15.71	-2.0357e-10
47	26442	15.81	-2.8777e-11
47	26592	15.91	1.15286e-10
47	26746	16.01	2.31459e-10
47	26896	16.11	3.22586e-10
47	27046	16.21	3.91509e-10
47	27196	16.31	4.40536e-10
47	27346	16.41	4.73399e-10
47	27496	16.51	4.91696e-10
47	27646	16.61	4.97913e-10
47	27796	16.71	4.9436e-10
47	27946	16.81	4.82281e-10
47	28096	16.91	4.63629e-10
47	28250	17.01	4.40181e-10
47	28400	17.11	4.13003e-10
47	28550	17.21	3.83338e-10
47	28700	17.31	3.51896e-10
47	28850	17.41	3.19922e-10
47	29000	17.51	2.87947e-10
47	29150	17.61	2.56506e-10
47	29300	17.71	2.26308e-10
47	29450	17.81	1.97531e-10
47	29600	17.91	1.70353e-10
47	29754	18.01	1.44951e-10
47	29904	18.11	1.21503e-10
47	30054	18.21	1.00009e-10
47	30204	18.31	8.06466e-11
47	30354	18.41	6.34159e-11
47	30504	18.51	4.81393e-11
47	30654	18.61	3.4639e-11
47	30804	18.71	2.2915e-11
47	30954	18.81	1.29674e-11
47	31104	18.91	4.44089e-12
47	31258	19.01	-2.66454e-12
47	31408	19.11	-8.17124e-12
47	31558	19.21	-1.26121e-11
47	31708	19.31	-1.61648e-11
47	31858	19.41	-1.86517e-11
47	32008	19.51	-2.04281e-11
47	32158	19.61	-2.16716e-11
47	32308	19.71	-2.16716e-11
47	32458	19.81	-2.16716e-11
47	32608	19.91	-2.16716e-11
47	32762	20.01	-2.14939e-11
47	32912	20.11	-1.97176e-11
47	33062	20.21	-1.79412e-11
47	33212	20.31	-1.61648e-11
47	33362	20.41	-1.43885e-11
47	33512	20.51	-1.29674e-11
47	33662	20.61	-1.1724e-11
47	33812	20.71	-1.04805e-11
47	33962	20.81	-9.59233e-12
47	34112	20.91	-8.70415e-12
47	34266	21.01	-7.81597e-12
47	34416	21.11	-7.10543e-12
47	34566	21.21	-6.39488e-12
47	34716	21.31	-5.68434e-12
47	34866	21.41	-5.15143e-12
47	35016	21.51	-4.79616e-12
47	35166	21.61	-4.26326e-12
47	35316	21.71	-3.90799e-12
47	35466	21.81	-3.55271e-12
47	35616	21.91	-3.19744e-12
47	35770	22.01	-2.84217e-12
47	35920	22.11	-2.66454e-12
47	36070	22.21	-2.30926e-12
47	36220	22.31	-2.13163e-12
47	36370	22.41	-1.95399e-12
47	36520	22.51	-1.77636e-12
47	36670	22.61	-1.59872e-12
47	36820	22.71	-1.42109e-12
47	36970	22.81	-1.24345e-12
47	37120	22.91	-1.06581e-12
47	37274	23.01	-1.06581e-12
47	37424	23.11	-8.88178e-13
47	37574	23.21	-8.88178e-13
47	37724	23.31	-7.10543e-13
47	37874	23.41	-7.10543e-13
47	38024	23.51	-7.10543e-13
47	38174	23.61	-5.32907e-13
47	38324	23.71	-5.32907e-13
47	38474	23.81	-5.32907e-13
47	38624	23.91	-3.55271e-13
47	38778	24.01	-3.55271e-13
47	38928	24.11	-3.55271e-13
47	39078	24.21	-3.55271e-13
47	39228	24.31	-3.55271e-13
47	39378	24.41	-1.77636e-13
47	39528	24.51	-1.77636e-13
47	39678	24.61	-1.77636e-13
47	39828	24.71	-1.77636e-13
47	39978	24.81	-1.77636e-13
47	40128	24.91	-1.77636e-13
47	40282	25.01	-1.77636e-13
47	40432	25.11	-1.77636e-13
47	40582	25.21	-1.77636e-13
47	40732	25.31	-1.77636e-13
47	40882	25.41	0
47	41032	25.51	0
47	41182	25.61	0
47	41333	25.71	0
47	41483	25.81	0
47	41633	25.91	0
47	41787	26.01	0
47	41937	26.11	0
47	42087	26.21	0
47	42237	26.31	0
47	42387	26.41	0
47	42537	26.51	0
47	42687	26.61	0
47	42837	26.71	0
47	42987	26.81	0
47	43137	26.91	0
47	43291	27.01	0
47	43441	27.11	0
47	43591	27.21	0
47	43741	27.31	0
47	43891	27.41	0
47	44041	27.51	0
47	44191	27.61	0
47	44341	27.71	0
47	44491	27.81	0
47	44641	27.91	0
47	44795	28.01	0
47	44945	28.11	0
47	45095	28.21	0
47	45245	28.31	0
47	45395	28.41	0
47	45545	28.51	0
47	45695	28.61	0
47	45845	28.71	0
47	45995	28.81	0
47	46145	28.91	0
47	46299	29.01	0
47	46449	29.11	0
47	46599	29.21	0
47	46749	29.31	0
47	46899	29.41	0
47	47049	29.51	0
47	47199	29.61	0
47	47349	29.71	0
47	47499	29.81	0
47	47649	29.91	0
47	47803	30.01	0
47	47953	30.11	0
47	48103	30.21	0
47	48253	30.31	0
47	48403	30.41	0
47	48553	30.51	0
47	48703	30.61	0
47	48853	30.71	0
47	49003	30.81	0
47	49153	30.91	0
47	49307	31.01	0
47	49457	31.11	0
47	49607	31.21	0
47	49757	31.31	0
47	49907	31.41	0
47	50057	31.51	0
47	50207	31.61	0
47	50357	31.71	0
47	50507	31.81	0
47	50657	31.91	0
51	26	0.21	1.6
51	176	0.31	1.6
51	326	0.41	1.6
51	476	0.51	1.6
51	626	0.61	1.6
51	776	0.71	1.6
51	926	0.81	1.6
51	1076	0.91	1.6
51	1230	1.01	1.6
51	1381	1.11	1.6
51	1532	1.21	1.6
51	1683	1.31	1.6
51	2046	1.41	1.6
51	2196	1.51	1.6
51	2346	1.61	1.6
51	2496	1.71	1.6
51	2646	1.81	1.6
51	2796	1.91	1.6
51	2950	2.01	1.6
51	3100	2.11	1.6
51	3250	2.21	1.6
51	3400	2.31	1.6
51	3763	2.41	1.6
51	3914	2.51	1.6
51	4064	2.61	1.6
51	4214	2.71	1.6
51	4364	2.81	1.6
51	4514	2.91	1.6
51	4668	3.01	1.6
51	4818	3.11	1.6
51	4968	3.21	1.6
51	5118	3.31	1.6
51	5269	3.41	1.6
51	5676	3.51	1.6
51	5826	3.61	1.6
51	5976	3.71	1.6
51	6126	3.81	1.6
51	6276	3.91	1.6
51	6430	4.01	1.6
51	6580	4.11	1.6
51	6730	4.21	1.6
51	6880	4.31	1.6
51	7030	4.41	1.6
51	7393	4.51	1.6
51	7544	4.61	1.6
51	7694	4.71	1.6
51	7844	4.81	1.6
51	7994	4.91	1.6
51	8148	5.01	1.6
51	8298	5.11	1.6
51	8448	5.21	1.6
51	8598	5.31	1.6
51	8748	5.41	1.6
51	8899	5.51	1.6
51	9262	5.61	1.6
51	9412	5.71	1.6
51	9562	5.81	1.6
51	9712	5.91	1.6
51	9866	6.01	1.6
51	10016	6.11	1.6
51	10166	6.21	1.6
51	10316	6.31	1.6
51	10466	6.41	1.6
51	10616	6.51	1.6
51	11023	6.61	1.6
51	11174	6.71	1.6
51	11324	6.81	1.6
51	11474	6.91	1.6
51	11628	7.01	1.6
51	11778	7.11	1.6
51	11928	7.21	1.6
51	12078	7.31	1.6
51	12228	7.41	1.6
51	12378	7.51	1.6
51	12529	7.61	1.6
51	12892	7.71	1.6
51	13042	7.81	1.6
51	13192	7.91	1.6
51	13346	8.01	1.6
51	13496	8.11	1.6
51	13646	8.21	1.6
51	13796	8.31	1.6
51	13946	8.41	1.6
51	14096	8.51	1.6
51	14246	8.61	1.6
51	14609	8.71	1.6
51	14760	8.81	1.6
51	14910	8.91	1.6
51	15064	9.01	1.6
51	15214	9.11	1.6
51	15364	9.21	1.6
51	15514	9.31	1.6
51	15664	9.41	1.6
51	15814	9.51	1.6
51	15964	9.61	1.6
51	16115	9.71	1.6
51	16522	9.81	1.6
51	16672	9.91	1.6
51	16826	10.01	1.6
51	16976	10.11	1.6
51	17126	10.21	1.6
51	17276	10.31	1.6
51	17426	10.41	1.6
51	17576	10.51	1.6
51	17726	10.61	1.6
51	17876	10.71	1.6
51	18239	10.81	1.6
51	18390	10.91	1.6
51	18544	11.01	1.6
51	18694	11.11	1.6
51	18844	11.21	1.6
51	18994	11.31	1.6
51	19144	11.41	1.6
51	19294	11.51	1.6
51	19444	11.61	1.6
51	19594	11.71	1.6
51	19745	11.81	1.6
51	20108	11.91	1.6
51	20262	12.01	1.6
51	20412	12.11	1.6
51	20562	12.21	1.6
51	20712	12.31	1.6
51	20862	12.41	1.6
51	21012	12.51	1.6
51	21162	12.61	1.6
51	21312	12.71	1.6
51	21462	12.81	1.6
51	21845	12.91	1.6
51	22000	13.01	1.6
51	22150	13.11	1.6
51	22300	13.21	1.6
51	22450	13.31	1.6
51	22600	13.41	1.6
51	22750	13.51	1.6
51	22900	13.61	1.6
51	23050	13.71	1.6
51	23200	13.81	1.6
51	23351	13.91	1.6
51	23738	14.01	1.6
51	23888	14.11	1.6
51	24038	14.21	1.6
51	24188	14.31	1.6
51	24338	14.41	1.6
51	24488	14.51	1.6
51	24638	14.61	1.6
51	24788	14.71	1.6
51	24938	14.81	1.6
51	25088	14.91	1.6
51	25242	15.01	1.6
51	25392	15.11	1.6
51	25542	15.21	1.6
51	25692	15.31	1.6
51	25842	15.41	1.6
51	25992	15.51	1.6
51	26142	15.61	1.6
51	26292	15.71	1.6
51	26442	15.81	1.6
51	26592	15.91	1.6
51	26746	16.01	1.6
51	26896	16.11	1.6
51	27046	16.21	1.6
51	27196	16.31	1.6
51	27346	16.41	1.6
51	27496	16.51	1.6
51	27646	16.61	1.6
51	27796	16.71	1.6
51	27946	16.81	1.6
51	28096	16.91	1.6
51	28250	17.01	1.6
51	28400	17.11	1.6
51	28550	17.21	1.6
51	28700	17.31	1.6
51	28850	17.41	1.6
51	29000	17.51	1.6
51	29150	17.61	1.6
51	29300	17.71	1.6
51	29450	17.81	1.6
51	29600	17.91	1.6
51	29754	18.01	1.6
51	29904	18.11	1.6
51	30054	18.21	1.6
51	30204	18.31	1.6
51	30354	18.41	1.6
51	30504	18.51	1.6
51	30654	18.61	1.6
51	30804	18.71	1.6
51	30954	18.81	1.6
51	31104	18.91	1.6
51	31258	19.01	1.6
51	31408	19.11	1.6
51	31558	19.21	1.6
51	31708	19.31	1.6
51	31858	19.41	1.6
51	32008	19.51	1.6
51	32158	19.61	1.6
51	32308	19.71	1.6
51	32458	19.81	1.6
51	32608	19.91	1.6
51	32762	20.01	1.6
51	32912	20.11	1.6
51	33062	20.21	1.6
51	33212	20.31	1.6
51	33362	20.41	1.6
51	33512	20.51	1.6
51	33662	20.61	1.6
51	33812	20.71	1.6
51	33962	20.81	1.6
51	34112	20.91	1.6
51	34266	21.01	1.6
51	34416	21.11	1.6
51	34566	21.21	1.6
51	34716	21.31	1.6
51	34866	21.41	1.6
51	35016	21.51	1.6
51	35166	21.61	1.6
51	35316	21.71	1.6
51	35466	21.81	1.6
51	35616	21.91	1.6
51	35770	22.01	1.6
51	35920	22.11	1.6
51	36070	22.21	1.6
51	36220	22.31	1.6
51	36370	22.41	1.6
51	36520	22.51	1.6
51	36670	22.61	1.6
51	36820	22.71	1.6
51	36970	22.81	1.6
51	37120	22.91	1.6
51	37274	23.01	1.6
51	37424	23.11	1.6
51	37574	23.21	1.6
51	37724	23.31	1.6
51	37874	23.41	1.6
51	38024	23.51	1.6
51	38174	23.61	1.6
51	38324	23.71	1.6
51	38474	23.81	1.6
51	38624	23.91	1.6
51	38778	24.01	1.6
51	38928	24.11	1.6
51	39078	24.21	1.6
51	39228	24.31	1.6
51	39378	24.41	1.6
51	39528	24.51	1.6
51	39678	24.61	1.6
51	39828	24.71	1.6
51	39978	24.81	1.6
51	40128	24.91	1.6
51	40282	25.01	1.6
51	40432	25.11	1.6
51	40582	25.21	1.6
51	40732	25.31	1.6
51	40882	25.41	1.6
51	41032	25.51	1.6
51	41182	25.61	1.6
51	41333	25.71	1.6
51	41483	25.81	1.6
51	41633	25.91	1.6
51	41787	26.01	1.6
51	41937	26.11	1.6
51	42087	26.21	1.6
51	42237	26.31	1.6
51	42387	26.41	1.6
51	42537	26.51	1.6
51	42687	26.61	1.6
51	42837	26.71	1.6
51	42987	26.81	1.6
51	43137	26.91	1.6
51	43291	27.01	1.6
51	43441	27.11	1.6
51	43591	27.21	1.6
51	43741	27.31	1.6
51	43891	27.41	1.6
51	44041	27.51	1.6
51	44191	27.61	1.6
51	44341	27.71	1.6
51	44491	27.81	1.6
51	44641	27.91	1.6
51	44795	28.01	1.6
51	44945	28.11	1.6
51	45095	28.21	1.6
51	45245	28.31	1.6
51	45395	28.41	1.6
51	45545	28.51	1.6
51	45695	28.61	1.6
51	45845	28.71	1.6
51	45995	28.81	1.6
51	46145	28.91	1.6
51	46299	29.01	1.6
51	46449	29.11	1.6
51	46599	29.21	1.6
51	46749	29.31	1.6
51	46899	29.41	1.6
51	47049	29.51	1.6
51	47199	29.61	1.6
51	47349	29.71	1.6
51	47499	29.81	1.6
51	47649	29.91	1.6
51	47803	30.01	1.6
51	47953	30.11	1.6
51	48103	30.21	1.6
51	48253	30.31	1.6
51	48403	30.41	1.6
51	48553	30.51	1.6
51	48703	30.61	1.6
51	48853	30.71	1.6
51	49003	30.81	1.6
51	49153	30.91	1.6
51	49307	31.01	1.6
51	49457	31.11	1.6
51	49607	31.21	1.6
51	49757	31.31	1.6
51	49907	31.41	1.6
51	50057	31.51	1.6
51	50207	31.61	1.6
51	50357	31.71	1.6
51	50507	31.81	1.6
51	50657	31.91	1.6
50	26	0.21	494.6
50	176	0.31	493.044
50	326	0.41	491.488
50	476	0.51	489.932
50	626	0.61	488.376
50	776	0.71	486.82
50	926	0.81	485.264
50	1076	0.91	483.708
50	1230	1.01	482.152
50	1381	1.11	480.596
50	1532	1.21	479.041
50	1683	1.31	477.485
50	2046	1.41	475.929
50	2196	1.51	474.374
50	2346	1.61	472.818
50	2496	1.71	471.262
50	2646	1.81	469.707
50	2796	1.91	468.151
50	2950	2.01	466.595
50	3100	2.11	465.04
50	3250	2.21	463.484
50	3400	2.31	461.929
50	3763	2.41	460.373
50	3914	2.51	458.817
50	4064	2.61	457.262
50	4214	2.71	455.706
50	4364	2.81	454.151
50	4514	2.91	452.595
50	4668	3.01	451.04
50	4818	3.11	449.484
50	4968	3.21	447.929
50	5118	3.31	446.373
50	5269	3.41	444.818
50	5676	3.51	443.262
50	5826	3.61	441.706
50	5976	3.71	440.151
50	6126	3.81	438.595
50	6276	3.91	437.04
50	6430	4.01	435.484
50	6580	4.11	433.929
50	6730	4.21	432.373
50	6880	4.31	430.818
50	7030	4.41	429.262
50	7393	4.51	427.707
50	7544	4.61	426.151
50	7694	4.71	424.595
50	7844	4.81	423.04
50	7994	4.91	421.484
50	8148	5.01	419.929
50	8298	5.11	418.373
50	8448	5.21	416.818
50	8598	5.31	415.262
50	8748	5.41	413.707
50	8899	5.51	412.151
50	9262	5.61	410.595
50	9412	5.71	409.04
50	9562	5.81	407.484
50	9712	5.91	405.929
50	9866	6.01	404.373
50	10016	6.11	402.818
50	10166	6.21	401.262
50	10316	6.31	399.706
50	10466	6.41	398.151
50	10616	6.51	396.595
50	11023	6.61	395.04
50	11174	6.71	393.484
50	11324	6.81	391.929
50	11474	6.91	390.373
50	11628	7.01	388.818
50	11778	7.11	387.262
50	11928	7.21	385.706
50	12078	7.31	384.151
50	12228	7.41	382.595
50	12378	7.51	381.04
50	12529	7.61	379.484
50	12892	7.71	377.929
50	13042	7.81	376.373
50	13192	7.91	374.817
50	13346	8.01	373.262
50	13496	8.11	371.706
50	13646	8.21	370.151
50	13796	8.31	368.595
50	13946	8.41	367.04
50	14096	8.51	365.484
50	14246	8.61	363.929
50	14609	8.71	362.373
50	14760	8.81	360.817
50	14910	8.91	359.262
50	15064	9.01	357.706
50	15214	9.11	356.151
50	15364	9.21	354.595
50	15514	9.31	353.04
50	15664	9.41	351.484
50	15814	9.51	349.929
50	15964	9.61	348.373
50	16115	9.71	346.817
50	16522	9.81	345.262
50	16672	9.91	343.706
50	16826	10.01	342.151
50	16976	10.11	340.595
50	17126	10.21	339.04
50	17276	10.31	337.484
50	17426	10.41	335.928
50	17576	10.51	334.373
50	17726	10.61	332.817
50	17876	10.71	331.262
50	18239	10.81	329.706
50	18390	10.91	328.151
50	18544	11.01	326.595
50	18694	11.11	325.04
50	18844	11.21	323.484
50	18994	11.31	321.928
50	19144	11.41	320.373
50	19294	11.51	318.817
50	19444	11.61	317.262
50	19594	11.71	315.706
50	19745	11.81	314.151
50	20108	11.91	312.595
50	20262	12.01	311.04
50	20412	12.11	309.484
50	20562	12.21	307.928
50	20712	12.31	306.373
50	20862	12.41	304.817
50	21012	12.51	303.262
50	21162	12.61	301.706
50	21312	12.71	300.151
50	21462	12.81	298.595
50	21845	12.91	297.039
50	22000	13.01	295.484
50	22150	13.11	293.928
50	22300	13.21	292.373
50	22450	13.31	290.817
50	22600	13.41	289.262
50	22750	13.51	287.706
50	22900	13.61	286.151
50	23050	13.71	284.595
50	23200	13.81	283.039
50	23351	13.91	281.484
50	23738	14.01	279.928
50	23888	14.11	278.373
50	24038	14.21	276.817
50	24188	14.31	275.262
50	24338	14.41	273.706
50	24488	14.51	272.151
50	24638	14.61	270.595
50	24788	14.71	269.039
50	24938	14.81	267.484
50	25088	14.91	265.928
50	25242	15.01	264.373
50	25392	15.11	262.817
50	25542	15.21	261.262
50	25692	15.31	259.706
50	25842	15.41	258.15
50	25992	15.51	256.595
50	26142	15.61	255.039
50	26292	15.71	253.484
50	26442	15.81	251.928
50	26592	15.91	250.373
50	26746	16.01	248.817
50	26896	16.11	247.262
50	27046	16.21	245.706
50	27196	16.31	244.15
50	27346	16.41	242.595
50	27496	16.51	241.039
50	27646	16.61	239.484
50	27796	16.71	237.928
50	27946	16.81	236.373
50	28096	16.91	234.817
50	28250	17.01	233.262
50	28400	17.11	231.706
50	28550	17.21	230.15
50	28700	17.31	228.595
50	28850	17.41	227.039
50	29000	17.51	225.484
50	29150	17.61	223.928
50	29300	17.71	222.373
50	29450	17.81	220.817
50	29600	17.91	219.261
50	29754	18.01	217.706
50	29904	18.11	216.15
50	30054	18.21	214.595
50	30204	18.31	213.039
50	30354	18.41	211.484
50	30504	18.51	209.928
50	30654	18.61	208.373
50	30804	18.71	206.817
50	30954	18.81	205.261
50	31104	18.91	203.706
50	31258	19.01	202.15
50	31408	19.11	200.595
50	31558	19.21	199.039
50	31708	19.31	197.484
50	31858	19.41	195.928
50	32008	19.51	194.373
50	32158	19.61	192.817
50	32308	19.71	191.261
50	32458	19.81	189.706
50	32608	19.91	188.15
50	32762	20.01	186.595
50	32912	20.11	185.039
50	33062	20.21	183.484
50	33212	20.31	181.928
50	33362	20.41	180.372
50	33512	20.51	178.817
50	33662	20.61	177.261
50	33812	20.71	175.706
50	33962	20.81	174.15
50	34112	20.91	172.595
50	34266	21.01	171.039
50	34416	21.11	169.484
50	34566	21.21	167.928
50	34716	21.31	166.372
50	34866	21.41	164.817
50	35016	21.51	163.261
50	35166	21.61	161.706
50	35316	21.71	160.15
50	35466	21.81	158.595
50	35616	21.91	157.039
50	35770	22.01	155.484
50	35920	22.11	153.928
50	36070	22.21	152.372
50	36220	22.31	150.817
50	36370	22.41	149.261
50	36520	22.51	147.706
50	36670	22.61	146.15
50	36820	22.71	144.595
50	36970	22.81	143.039
50	37120	22.91	141.483
50	37274	23.01	139.928
50	37424	23.11	138.372
50	37574	23.21	136.817
50	37724	23.31	135.261
50	37874	23.41	133.706
50	38024	23.51	132.15
50	38174	23.61	130.595
50	38324	23.71	129.039
50	38474	23.81	127.483
50	38624	23.91	125.928
50	38778	24.01	124.372
50	38928	24.11	122.817
50	39078	24.21	121.261
50	39228	24.31	119.706
50	39378	24.41	118.15
50	39528	24.51	116.595
50	39678	24.61	115.039
50	39828	24.71	113.483
50	39978	24.81	111.928
50	40128	24.91	110.372
50	40282	25.01	108.817
50	40432	25.11	107.261
50	40582	25.21	105.706
50	40732	25.31	104.15
50	40882	25.41	102.594
50	41032	25.51	101.039
50	41182	25.61	99.4834
50	41333	25.71	97.9278
50	41483	25.81	96.3723
50	41633	25.91	94.8167
50	41787	26.01	93.2611
50	41937	26.11	91.7056
50	42087	26.21	90.15
50	42237	26.31	88.5945
50	42387	26.41	87.0389
50	42537	26.51	85.4833
50	42687	26.61	83.9278
50	42837	26.71	82.3722
50	42987	26.81	80.8167
50	43137	26.91	79.2611
50	43291	27.01	77.7055
50	43441	27.11	76.15
50	43591	27.21	74.5944
50	43741	27.31	73.0389
50	43891	27.41	71.4833
50	44041	27.51	69.9277
50	44191	27.61	68.3722
50	44341	27.71	66.8166
50	44491	27.81	65.2611
50	44641	27.91	63.7055
50	44795	28.01	62.1499
50	44945	28.11	60.5944
50	45095	28.21	59.0388
50	45245	28.31	57.4833
50	45395	28.41	55.9277
50	45545	28.51	54.3721
50	45695	28.61	52.8166
50	45845	28.71	51.261
50	45995	28.81	49.7055
50	46145	28.91	48.1499
50	46299	29.01	46.5943
50	46449	29.11	45.0388
50	46599	29.21	43.4832
50	46749	29.31	41.9277
50	46899	29.41	40.3721
50	47049	29.51	38.8165
50	47199	29.61	37.261
50	47349	29.71	35.7054
50	47499	29.81	34.1499
50	47649	29.91	32.5943
50	47803	30.01	31.0387
50	47953	30.11	29.4832
50	48103	30.21	27.9276
50	48253	30.31	26.3721
50	48403	30.41	24.8165
50	48553	30.51	23.2609
50	48703	30.61	21.7054
50	48853	30.71	20.1498
50	49003	30.81	18.5943
50	49153	30.91	17.0387
50	49307	31.01	15.4831
50	49457	31.11	13.9276
50	49607	31.21	12.372
50	49757	31.31	10.8165
50	49907	31.41	9.2609
50	50057	31.51	7.70534
50	50207	31.61	6.14978
50	50357	31.71	4.59422
50	50507	31.81	3.03866
50	50657	31.91	1.4831
49	26	0.21	15.56
49	176	0.31	15.5599
49	326	0.41	15.5597
49	476	0.51	15.5595
49	626	0.61	15.5592
49	776	0.71	15.559
49	926	0.81	15.5587
49	1076	0.91	15.5584
49	1230	1.01	15.5581
49	1381	1.11	15.5579
49	1532	1.21	15.5576
49	1683	1.31	15.5573
49	2046	1.41	15.5571
49	2196	1.51	15.5569
49	2346	1.61	15.5567
49	2496	1.71	15.5565
49	2646	1.81	15.5563
49	2796	1.91	15.5562
49	2950	2.01	15.556
49	3100	2.11	15.5559
49	3250	2.21	15.5558
49	3400	2.31	15.5557
49	3763	2.41	15.5556
49	3914	2.51	15.5556
49	4064	2.61	15.5555
49	4214	2.71	15.5555
49	4364	2.81	15.5555
49	4514	2.91	15.5554
49	4668	3.01	15.5554
49	4818	3.11	15.5554
49	4968	3.21	15.5554
49	5118	3.31	15.5554
49	5269	3.41	15.5554
49	5676	3.51	15.5554
49	5826	3.61	15.5554
49	5976	3.71	15.5554
49	6126	3.81	15.5554
49	6276	3.91	15.5555
49	6430	4.01	15.5555
49	6580	4.11	15.5555
49	6730	4.21	15.5555
49	6880	4.31	15.5555
49	7030	4.41	15.5555
49	7393	4.51	15.5555
49	7544	4.61	15.5555
49	7694	4.71	15.5555
49	7844	4.81	15.5556
49	7994	4.91	15.5556
49	8148	5.01	15.5556
49	8298	5.11	15.5556
49	8448	5.21	15.5556
49	8598	5.31	15.5556
49	8748	5.41	15.5556
49	8899	5.51	15.5556
49	9262	5.61	15.5556
49	9412	5.71	15.5556
49	9562	5.81	15.5556
49	9712	5.91	15.5556
49	9866	6.01	15.5556
49	10016	6.11	15.5556
49	10166	6.21	15.5556
49	10316	6.31	15.5556
49	10466	6.41	15.5556
49	10616	6.51	15.5556
49	11023	6.61	15.5556
49	11174	6.71	15.5556
49	11324	6.81	15.5556
49	11474	6.91	15.5556
49	11628	7.01	15.5556
49	11778	7.11	15.5556
49	11928	7.21	15.5556
49	12078	7.31	15.5556
49	12228	7.41	15.5556
49	12378	7.51	15.5556
49	12529	7.61	15.5556
49	12892	7.71	15.5556
49	13042	7.81	15.5556
49	13192	7.91	15.5556
49	13346	8.01	15.5556
49	13496	8.11	15.5556
49	13646	8.21	15.5556
49	13796	8.31	15.5556
49	13946	8.41	15.5556
49	14096	8.51	15.5556
49	14246	8.61	15.5556
49	14609	8.71	15.5556
49	14760	8.81	15.5556
49	14910	8.91	15.5556
49	15064	9.01	15.5556
49	15214	9.11	15.5556
49	15364	9.21	15.5556
49	15514	9.31	15.5556
49	15664	9.41	15.5556
49	15814	9.51	15.5556
49	15964	9.61	15.5556
49	16115	9.71	15.5556
49	16522	9.81	15.5556
49	16672	9.91	15.5556
49	16826	10.01	15.5556
49	16976	10.11	15.5556
49	17126	10.21	15.5556
49	17276	10.31	15.5556
49	17426	10.41	15.5556
49	17576	10.51	15.5556
49	17726	10.61	15.5556
49	17876	10.71	15.5556
49	18239	10.81	15.5556
49	18390	10.91	15.5556
49	18544	11.01	15.5556
49	18694	11.11	15.5556
49	18844	11.21	15.5556
49	18994	11.31	15.5556
49	19144	11.41	15.5556
49	19294	11.51	15.5556
49	19444	11.61	15.5556
49	19594	11.71	15.5556
49	19745	11.81	15.5556
49	20108	11.91	15.5556
49	20262	12.01	15.5556
49	20412	12.11	15.5556
49	20562	12.21	15.5556
49	20712	12.31	15.5556
49	20862	12.41	15.5556
49	21012	12.51	15.5556
49	21162	12.61	15.5556
49	21312	12.71	15.5556
49	21462	12.81	15.5556
49	21845	12.91	15.5556
49	22000	13.01	15.5556
49	22150	13.11	15.5556
49	22300	13.21	15.5556
49	22450	13.31	15.5556
49	22600	13.41	15.5556
49	22750	13.51	15.5556
49	22900	13.61	15.5556
49	23050	13.71	15.5556
49	23200	13.81	15.5556
49	23351	13.91	15.5556
49	23738	14.01	15.5556
49	23888	14.11	15.5556
49	24038	14.21	15.5556
49	24188	14.31	15.5556
49	24338	14.41	15.5556
49	24488	14.51	15.5556
49	24638	14.61	15.5556
49	24788	14.71	15.5556
49	24938	14.81	15.5556
49	25088	14.91	15.5556
49	25242	15.01	15.5556
49	25392	15.11	15.5556
49	25542	15.21	15.5556
49	25692	15.31	15.5556
49	25842	15.41	15.5556
49	25992	15.51	15.5556
49	26142	15.61	15.5556
49	26292	15.71	15.5556
49	26442	15.81	15.5556
49	26592	15.91	15.5556
49	26746	16.01	15.5556
49	26896	16.11	15.5556
49	27046	16.21	15.5556
49	27196	16.31	15.5556
49	27346	16.41	15.5556
49	27496	16.51	15.5556
49	27646	16.61	15.5556
49	27796	16.71	15.5556
49	27946	16.81	15.5556
49	28096	16.91	15.5556
49	28250	17.01	15.5556
49	28400	17.11	15.5556
49	28550	17.21	15.5556
49	28700	17.31	15.5556
49	28850	17.41	15.5556
49	29000	17.51	15.5556
49	29150	17.61	15.5556
49	29300	17.71	15.5556
49	29450	17.81	15.5556
49	29600	17.91	15.5556
49	29754	18.01	15.5556
49	29904	18.11	15.5556
49	30054	18.21	15.5556
49	30204	18.31	15.5556
49	30354	18.41	15.5556
49	30504	18.51	15.5556
49	30654	18.61	15.5556
49	30804	18.71	15.5556
49	30954	18.81	15.5556
49	31104	18.91	15.5556
49	31258	19.01	15.5556
49	31408	19.11	15.5556
49	31558	19.21	15.5556
49	31708	19.31	15.5556
49	31858	19.41	15.5556
49	32008	19.51	15.5556
49	32158	19.61	15.5556
49	32308	19.71	15.5556
49	32458	19.81	15.5556
49	32608	19.91	15.5556
49	32762	20.01	15.5556
49	32912	20.11	15.5556
49	33062	20.21	15.5556
49	33212	20.31	15.5556
49	33362	20.41	15.5556
49	33512	20.51	15.5556
49	33662	20.61	15.5556
49	33812	20.71	15.5556
49	33962	20.81	15.5556
49	34112	20.91	15.5556
49	34266	21.01	15.5556
49	34416	21.11	15.5556
49	34566	21.21	15.5556
49	34716	21.31	15.5556
49	34866	21.41	15.5556
49	35016	21.51	15.5556
49	35166	21.61	15.5556
49	35316	21.71	15.5556
49	35466	21.81	15.5556
49	35616	21.91	15.5556
49	35770	22.01	15.5556
49	35920	22.11	15.5556
49	36070	22.21	15.5556
49	36220	22.31	15.5556
49	36370	22.41	15.5556
49	36520	22.51	15.5556
49	36670	22.61	15.5556
49	36820	22.71	15.5556
49	36970	22.81	15.5556
49	37120	22.91	15.5556
49	37274	23.01	15.5556
49	37424	23.11	15.5556
49	37574	23.21	15.5556
49	37724	23.31	15.5556
49	37874	23.41	15.5556
49	38024	23.51	15.5556
49	38174	23.61	15.5556
49	38324	23.71	15.5556
49	38474	23.81	15.5556
49	38624	23.91	15.5556
49	38778	24.01	15.5556
49	38928	24.11	15.5556
49	39078	24.21	15.5556
49	39228	24.31	15.5556
49	39378	24.41	15.5556
49	39528	24.51	15.5556
49	39678	24.61	15.5556
49	39828	24.71	15.5556
49	39978	24.81	15.5556
49	40128	24.91	15.5556
49	40282	25.01	15.5556
49	40432	25.11	15.5556
49	40582	25.21	15.5556
49	40732	25.31	15.5556
49	40882	25.41	15.5556
49	41032	25.51	15.5556
49	41182	25.61	15.5556
49	41333	25.71	15.5556
49	41483	25.81	15.5556
49	41633	25.91	15.5556
49	41787	26.01	15.5556
49	41937	26.11	15.5556
49	42087	26.21	15.5556
49	42237	26.31	15.5556
49	42387	26.41	15.5556
49	42537	26.51	15.5556
49	42687	26.61	15.5556
49	42837	26.71	15.5556
49	42987	26.81	15.5556
49	43137	26.91	15.5556
49	43291	27.01	15.5556
49	43441	27.11	15.5556
49	43591	27.21	15.5556
49	43741	27.31	15.5556
49	43891	27.41	15.5556
49	44041	27.51	15.5556
49	44191	27.61	15.5556
49	44341	27.71	15.5556
49	44491	27.81	15.5556
49	44641	27.91	15.5556
49	44795	28.01	15.5556
49	44945	28.11	15.5556
49	45095	28.21	15.5556
49	45245	28.31	15.5556
49	45395	28.41	15.5556
49	45545	28.51	15.5556
49	45695	28.61	15.5556
49	45845	28.71	15.5556
49	45995	28.81	15.5556
49	46145	28.91	15.5556
49	46299	29.01	15.5556
49	46449	29.11	15.5556
49	46599	29.21	15.5556
49	46749	29.31	15.5556
49	46899	29.41	15.5556
49	47049	29.51	15.5556
49	47199	29.61	15.5556
49	47349	29.71	15.5556
49	47499	29.81	15.5556
49	47649	29.91	15.5556
49	47803	30.01	15.5556
49	47953	30.11	15.5556
49	48103	30.21	15.5556
49	48253	30.31	15.5556
49	48403	30.41	15.5556
49	48553	30.51	15.5556
49	48703	30.61	15.5556
49	48853	30.71	15.5556
49	49003	30.81	15.5556
49	49153	30.91	15.5556
49	49307	31.01	15.5556
49	49457	31.11	15.5556
49	49607	31.21	15.5556
49	49757	31.31	15.5556
49	49907	31.41	15.5556
49	50057	31.51	15.5556
49	50207	31.61	15.5556
49	50357	31.71	15.5556
49	50507	31.81	15.5556
49	50657	31.91	15.5556
45	26	0.21	0
45	176	0.31	0
45	326	0.41	0
45	476	0.51	0
45	626	0.61	0
45	776	0.71	0
45	926	0.81	0
45	1076	0.91	0
45	1230	1.01	0
45	1381	1.11	0
45	1532	1.21	0
45	1683	1.31	0
45	2046	1.41	0
45	2196	1.51	0
45	2346	1.61	0
45	2496	1.71	0
45	2646	1.81	0
45	2796	1.91	0
45	2950	2.01	0
45	3100	2.11	0
45	3250	2.21	0
45	3400	2.31	0
45	3763	2.41	0
45	3914	2.51	0
45	4064	2.61	0
45	4214	2.71	0
45	4364	2.81	0
45	4514	2.91	0
45	4668	3.01	0
45	4818	3.11	0
45	4968	3.21	0
45	5118	3.31	0
45	5269	3.41	0
45	5676	3.51	0
45	5826	3.61	0
45	5976	3.71	0
45	6126	3.81	0
45	6276	3.91	0
45	6430	4.01	0
45	6580	4.11	0
45	6730	4.21	0
45	6880	4.31	0
45	7030	4.41	0
45	7393	4.51	0
45	7544	4.61	0
45	7694	4.71	0
45	7844	4.81	0
45	7994	4.91	0
45	8148	5.01	0
45	8298	5.11	0
45	8448	5.21	0
45	8598	5.31	0
45	8748	5.41	0
45	8899	5.51	0
45	9262	5.61	0
45	9412	5.71	0
45	9562	5.81	0
45	9712	5.91	0
45	9866	6.01	0
45	10016	6.11	0
45	10166	6.21	0
45	10316	6.31	0
45	10466	6.41	0
45	10616	6.51	0
45	11023	6.61	0
45	11174	6.71	0
45	11324	6.81	0
45	11474	6.91	0
45	11628	7.01	0
45	11778	7.11	0
45	11928	7.21	0
45	12078	7.31	0
45	12228	7.41	0
45	12378	7.51	0
45	12529	7.61	0
45	12892	7.71	0
45	13042	7.81	0
45	13192	7.91	0
45	13346	8.01	0
45	13496	8.11	0
45	13646	8.21	0
45	13796	8.31	0
45	13946	8.41	0
45	14096	8.51	0
45	14246	8.61	0
45	14609	8.71	0
45	14760	8.81	0
45	14910	8.91	0
45	15064	9.01	0
45	15214	9.11	0
45	15364	9.21	0
45	15514	9.31	0
45	15664	9.41	0
45	15814	9.51	0
45	15964	9.61	0
45	16115	9.71	0
45	16522	9.81	0
45	16672	9.91	0
45	16826	10.01	0
45	16976	10.11	0
45	17126	10.21	0
45	17276	10.31	0
45	17426	10.41	0
45	17576	10.51	0
45	17726	10.61	0
45	17876	10.71	0
45	18239	10.81	0
45	18390	10.91	0
45	18544	11.01	0
45	18694	11.11	0
45	18844	11.21	0
45	18994	11.31	0
45	19144	11.41	0
45	19294	11.51	0
45	19444	11.61	0
45	19594	11.71	0
45	19745	11.81	0
45	20108	11.91	0
45	20262	12.01	0
45	20412	12.11	0
45	20562	12.21	0
45	20712	12.31	0
45	20862	12.41	0
45	21012	12.51	0
45	21162	12.61	0
45	21312	12.71	0
45	21462	12.81	0
45	21845	12.91	0
45	22000	13.01	0
45	22150	13.11	0
45	22300	13.21	0
45	22450	13.31	0
45	22600	13.41	0
45	22750	13.51	0
45	22900	13.61	0
45	23050	13.71	0
45	23200	13.81	0
45	23351	13.91	0
45	23738	14.01	0
45	23888	14.11	0
45	24038	14.21	0
45	24188	14.31	0
45	24338	14.41	0
45	24488	14.51	0
45	24638	14.61	0
45	24788	14.71	0
45	24938	14.81	0
45	25088	14.91	0
45	25242	15.01	0
45	25392	15.11	0
45	25542	15.21	0
45	25692	15.31	0
45	25842	15.41	0
45	25992	15.51	0
45	26142	15.61	0
45	26292	15.71	0
45	26442	15.81	0
45	26592	15.91	0
45	26746	16.01	0
45	26896	16.11	0
45	27046	16.21	0
45	27196	16.31	0
45	27346	16.41	0
45	27496	16.51	0
45	27646	16.61	0
45	27796	16.71	0
45	27946	16.81	0
45	28096	16.91	0
45	28250	17.01	0
45	28400	17.11	0
45	28550	17.21	0
45	28700	17.31	0
45	28850	17.41	0
45	29000	17.51	0
45	29150	17.61	0
45	29300	17.71	0
45	29450	17.81	0
45	29600	17.91	0
45	29754	18.01	0
45	29904	18.11	0
45	30054	18.21	0
45	30204	18.31	0
45	30354	18.41	0
45	30504	18.51	0
45	30654	18.61	0
45	30804	18.71	0
45	30954	18.81	0
45	31104	18.91	0
45	31258	19.01	0
45	31408	19.11	0
45	31558	19.21	0
45	31708	19.31	0
45	31858	19.41	0
45	32008	19.51	0
45	32158	19.61	0
45	32308	19.71	0
45	32458	19.81	0
45	32608	19.91	0
45	32762	20.01	0
45	32912	20.11	0
45	33062	20.21	0
45	33212	20.31	0
45	33362	20.41	0
45	33512	20.51	0
45	33662	20.61	0
45	33812	20.71	0
45	33962	20.81	0
45	34112	20.91	0
45	34266	21.01	0
45	34416	21.11	0
45	34566	21.21	0
45	34716	21.31	0
45	34866	21.41	0
45	35016	21.51	0
45	35166	21.61	0
45	35316	21.71	0
45	35466	21.81	0
45	35616	21.91	0
45	35770	22.01	0
45	35920	22.11	0
45	36070	22.21	0
45	36220	22.31	0
45	36370	22.41	0
45	36520	22.51	0
45	36670	22.61	0
45	36820	22.71	0
45	36970	22.81	0
45	37120	22.91	0
45	37274	23.01	0
45	37424	23.11	0
45	37574	23.21	0
45	37724	23.31	0
45	37874	23.41	0
45	38024	23.51	0
45	38174	23.61	0
45	38324	23.71	0
45	38474	23.81	0
45	38624	23.91	0
45	38778	24.01	0
45	38928	24.11	0
45	39078	24.21	0
45	39228	24.31	0
45	39378	24.41	0
45	39528	24.51	0
45	39678	24.61	0
45	39828	24.71	0
45	39978	24.81	0
45	40128	24.91	0
45	40282	25.01	0
45	40432	25.11	0
45	40582	25.21	0
45	40732	25.31	0
45	40882	25.41	0
45	41032	25.51	0
45	41182	25.61	0
45	41333	25.71	0
45	41483	25.81	0
45	41633	25.91	0
45	41787	26.01	0
45	41937	26.11	0
45	42087	26.21	0
45	42237	26.31	0
45	42387	26.41	0
45	42537	26.51	0
45	42687	26.61	0
45	42837	26.71	0
45	42987	26.81	0
45	43137	26.91	0
45	43291	27.01	0
45	43441	27.11	0
45	43591	27.21	0
45	43741	27.31	0
45	43891	27.41	0
45	44041	27.51	0
45	44191	27.61	0
45	44341	27.71	0
45	44491	27.81	0
45	44641	27.91	0
45	44795	28.01	0
45	44945	28.11	0
45	45095	28.21	0
45	45245	28.31	0
45	45395	28.41	0
45	45545	28.51	0
45	45695	28.61	0
45	45845	28.71	0
45	45995	28.81	0
45	46145	28.91	0
45	46299	29.01	0
45	46449	29.11	0
45	46599	29.21	0
45	46749	29.31	0
45	46899	29.41	0
45	47049	29.51	0
45	47199	29.61	0
45	47349	29.71	0
45	47499	29.81	0
45	47649	29.91	0
45	47803	30.01	0
45	47953	30.11	0
45	48103	30.21	0
45	48253	30.31	0
45	48403	30.41	0
45	48553	30.51	0
45	48703	30.61	0
45	48853	30.71	0
45	49003	30.81	0
45	49153	30.91	0
45	49307	31.01	0
45	49457	31.11	0
45	49607	31.21	0
45	49757	31.31	0
45	49907	31.41	0
45	50057	31.51	0
45	50207	31.61	0
45	50357	31.71	0
45	50507	31.81	0
45	50657	31.91	0
44	26	0.21	-1
44	176	0.31	-1
44	326	0.41	-1
44	476	0.51	-1
44	626	0.61	-1
44	776	0.71	-1
44	926	0.81	-1
44	1076	0.91	-1
44	1230	1.01	-1
44	1381	1.11	-1
44	1532	1.21	-1
44	1683	1.31	-1
44	2046	1.41	-1
44	2196	1.51	-1
44	2346	1.61	-1
44	2496	1.71	-1
44	2646	1.81	-1
44	2796	1.91	-1
44	2950	2.01	-1
44	3100	2.11	-1
44	3250	2.21	-1
44	3400	2.31	-1
44	3763	2.41	-1
44	3914	2.51	-1
44	4064	2.61	-1
44	4214	2.71	-1
44	4364	2.81	-1
44	4514	2.91	-1
44	4668	3.01	-1
44	4818	3.11	-1
44	4968	3.21	-1
44	5118	3.31	-1
44	5269	3.41	-1
44	5676	3.51	-1
44	5826	3.61	-1
44	5976	3.71	-1
44	6126	3.81	-1
44	6276	3.91	-1
44	6430	4.01	-1
44	6580	4.11	-1
44	6730	4.21	-1
44	6880	4.31	-1
44	7030	4.41	-1
44	7393	4.51	-1
44	7544	4.61	-1
44	7694	4.71	-1
44	7844	4.81	-1
44	7994	4.91	-1
44	8148	5.01	-1
44	8298	5.11	-1
44	8448	5.21	-1
44	8598	5.31	-1
44	8748	5.41	-1
44	8899	5.51	-1
44	9262	5.61	-1
44	9412	5.71	-1
44	9562	5.81	-1
44	9712	5.91	-1
44	9866	6.01	-1
44	10016	6.11	-1
44	10166	6.21	-1
44	10316	6.31	-1
44	10466	6.41	-1
44	10616	6.51	-1
44	11023	6.61	-1
44	11174	6.71	-1
44	11324	6.81	-1
44	11474	6.91	-1
44	11628	7.01	-1
44	11778	7.11	-1
44	11928	7.21	-1
44	12078	7.31	-1
44	12228	7.41	-1
44	12378	7.51	-1
44	12529	7.61	-1
44	12892	7.71	-1
44	13042	7.81	-1
44	13192	7.91	-1
44	13346	8.01	-1
44	13496	8.11	-1
44	13646	8.21	-1
44	13796	8.31	-1
44	13946	8.41	-1
44	14096	8.51	-1
44	14246	8.61	-1
44	14609	8.71	-1
44	14760	8.81	-1
44	14910	8.91	-1
44	15064	9.01	-1
44	15214	9.11	-1
44	15364	9.21	-1
44	15514	9.31	-1
44	15664	9.41	-1
44	15814	9.51	-1
44	15964	9.61	-1
44	16115	9.71	-1
44	16522	9.81	-1
44	16672	9.91	-1
44	16826	10.01	-1
44	16976	10.11	-1
44	17126	10.21	-1
44	17276	10.31	-1
44	17426	10.41	-1
44	17576	10.51	-1
44	17726	10.61	-1
44	17876	10.71	-1
44	18239	10.81	-1
44	18390	10.91	-1
44	18544	11.01	-1
44	18694	11.11	-1
44	18844	11.21	-1
44	18994	11.31	-1
44	19144	11.41	-1
44	19294	11.51	-1
44	19444	11.61	-1
44	19594	11.71	-1
44	19745	11.81	-1
44	20108	11.91	-1
44	20262	12.01	-1
44	20412	12.11	-1
44	20562	12.21	-1
44	20712	12.31	-1
44	20862	12.41	-1
44	21012	12.51	-1
44	21162	12.61	-1
44	21312	12.71	-1
44	21462	12.81	-1
44	21845	12.91	-1
44	22000	13.01	-1
44	22150	13.11	-1
44	22300	13.21	-1
44	22450	13.31	-1
44	22600	13.41	-1
44	22750	13.51	-1
44	22900	13.61	-1
44	23050	13.71	-1
44	23200	13.81	-1
44	23351	13.91	-1
44	23738	14.01	-1
44	23888	14.11	-1
44	24038	14.21	-1
44	24188	14.31	-1
44	24338	14.41	-1
44	24488	14.51	-1
44	24638	14.61	-1
44	24788	14.71	-1
44	24938	14.81	-1
44	25088	14.91	-1
44	25242	15.01	-1
44	25392	15.11	-1
44	25542	15.21	-1
44	25692	15.31	-1
44	25842	15.41	-1
44	25992	15.51	-1
44	26142	15.61	-1
44	26292	15.71	-1
44	26442	15.81	-1
44	26592	15.91	-1
44	26746	16.01	-1
44	26896	16.11	-1
44	27046	16.21	-1
44	27196	16.31	-1
44	27346	16.41	-1
44	27496	16.51	-1
44	27646	16.61	-1
44	27796	16.71	-1
44	27946	16.81	-1
44	28096	16.91	-1
44	28250	17.01	-1
44	28400	17.11	-1
44	28550	17.21	-1
44	28700	17.31	-1
44	28850	17.41	-1
44	29000	17.51	-1
44	29150	17.61	-1
44	29300	17.71	-1
44	29450	17.81	-1
44	29600	17.91	-1
44	29754	18.01	-1
44	29904	18.11	-1
44	30054	18.21	-1
44	30204	18.31	-1
44	30354	18.41	-1
44	30504	18.51	-1
44	30654	18.61	-1
44	30804	18.71	-1
44	30954	18.81	-1
44	31104	18.91	-1
44	31258	19.01	-1
44	31408	19.11	-1
44	31558	19.21	-1
44	31708	19.31	-1
44	31858	19.41	-1
44	32008	19.51	-1
44	32158	19.61	-1
44	32308	19.71	-1
44	32458	19.81	-1
44	32608	19.91	-1
44	32762	20.01	-1
44	32912	20.11	-1
44	33062	20.21	-1
44	33212	20.31	-1
44	33362	20.41	-1
44	33512	20.51	-1
44	33662	20.61	-1
44	33812	20.71	-1
44	33962	20.81	-1
44	34112	20.91	-1
44	34266	21.01	-1
44	34416	21.11	-1
44	34566	21.21	-1
44	34716	21.31	-1
44	34866	21.41	-1
44	35016	21.51	-1
44	35166	21.61	-1
44	35316	21.71	-1
44	35466	21.81	-1
44	35616	21.91	-1
44	35770	22.01	-1
44	35920	22.11	-1
44	36070	22.21	-1
44	36220	22.31	-1
44	36370	22.41	-1
44	36520	22.51	-1
44	36670	22.61	-1
44	36820	22.71	-1
44	36970	22.81	-1
44	37120	22.91	-1
44	37274	23.01	-1
44	37424	23.11	-1
44	37574	23.21	-1
44	37724	23.31	-1
44	37874	23.41	-1
44	38024	23.51	-1
44	38174	23.61	-1
44	38324	23.71	-1
44	38474	23.81	-1
44	38624	23.91	-1
44	38778	24.01	-1
44	38928	24.11	-1
44	39078	24.21	-1
44	39228	24.31	-1
44	39378	24.41	-1
44	39528	24.51	-1
44	39678	24.61	-1
44	39828	24.71	-1
44	39978	24.81	-1
44	40128	24.91	-1
44	40282	25.01	-1
44	40432	25.11	-1
44	40582	25.21	-1
44	40732	25.31	-1
44	40882	25.41	-1
44	41032	25.51	-1
44	41182	25.61	-1
44	41333	25.71	-1
44	41483	25.81	-1
44	41633	25.91	-1
44	41787	26.01	-1
44	41937	26.11	-1
44	42087	26.21	-1
44	42237	26.31	-1
44	42387	26.41	-1
44	42537	26.51	-1
44	42687	26.61	-1
44	42837	26.71	-1
44	42987	26.81	-1
44	43137	26.91	-1
44	43291	27.01	-1
44	43441	27.11	-1
44	43591	27.21	-1
44	43741	27.31	-1
44	43891	27.41	-1
44	44041	27.51	-1
44	44191	27.61	-1
44	44341	27.71	-1
44	44491	27.81	-1
44	44641	27.91	-1
44	44795	28.01	-1
44	44945	28.11	-1
44	45095	28.21	-1
44	45245	28.31	-1
44	45395	28.41	-1
44	45545	28.51	-1
44	45695	28.61	-1
44	45845	28.71	-1
44	45995	28.81	-1
44	46145	28.91	-1
44	46299	29.01	-1
44	46449	29.11	-1
44	46599	29.21	-1
44	46749	29.31	-1
44	46899	29.41	-1
44	47049	29.51	-1
44	47199	29.61	-1
44	47349	29.71	-1
44	47499	29.81	-1
44	47649	29.91	-1
44	47803	30.01	-1
44	47953	30.11	-1
44	48103	30.21	-1
44	48253	30.31	-1
44	48403	30.41	-1
44	48553	30.51	-1
44	48703	30.61	-1
44	48853	30.71	-1
44	49003	30.81	-1
44	49153	30.91	-1
44	49307	31.01	-1
44	49457	31.11	-1
44	49607	31.21	-1
44	49757	31.31	-1
44	49907	31.41	-1
44	50057	31.51	-1
44	50207	31.61	-1
44	50357	31.71	-1
44	50507	31.81	-1
44	50657	31.91	-1
46	26	0.21	3
46	176	0.31	3
46	326	0.41	3
46	476	0.51	3
46	626	0.61	3
46	776	0.71	3
46	926	0.81	3
46	1076	0.91	3
46	1230	1.01	3
46	1381	1.11	3
46	1532	1.21	3
46	1683	1.31	3
46	2046	1.41	3
46	2196	1.51	3
46	2346	1.61	3
46	2496	1.71	3
46	2646	1.81	3
46	2796	1.91	3
46	2950	2.01	3
46	3100	2.11	3
46	3250	2.21	3
46	3400	2.31	3
46	3763	2.41	3
46	3914	2.51	3
46	4064	2.61	3
46	4214	2.71	3
46	4364	2.81	3
46	4514	2.91	3
46	4668	3.01	3
46	4818	3.11	3
46	4968	3.21	3
46	5118	3.31	3
46	5269	3.41	3
46	5676	3.51	3
46	5826	3.61	3
46	5976	3.71	3
46	6126	3.81	3
46	6276	3.91	3
46	6430	4.01	3
46	6580	4.11	3
46	6730	4.21	3
46	6880	4.31	3
46	7030	4.41	3
46	7393	4.51	3
46	7544	4.61	3
46	7694	4.71	3
46	7844	4.81	3
46	7994	4.91	3
46	8148	5.01	3
46	8298	5.11	3
46	8448	5.21	3
46	8598	5.31	3
46	8748	5.41	3
46	8899	5.51	3
46	9262	5.61	3
46	9412	5.71	3
46	9562	5.81	3
46	9712	5.91	3
46	9866	6.01	3
46	10016	6.11	3
46	10166	6.21	3
46	10316	6.31	3
46	10466	6.41	3
46	10616	6.51	3
46	11023	6.61	3
46	11174	6.71	3
46	11324	6.81	3
46	11474	6.91	3
46	11628	7.01	3
46	11778	7.11	3
46	11928	7.21	3
46	12078	7.31	3
46	12228	7.41	3
46	12378	7.51	3
46	12529	7.61	3
46	12892	7.71	3
46	13042	7.81	3
46	13192	7.91	3
46	13346	8.01	3
46	13496	8.11	3
46	13646	8.21	3
46	13796	8.31	3
46	13946	8.41	3
46	14096	8.51	3
46	14246	8.61	3
46	14609	8.71	3
46	14760	8.81	3
46	14910	8.91	3
46	15064	9.01	3
46	15214	9.11	3
46	15364	9.21	3
46	15514	9.31	3
46	15664	9.41	3
46	15814	9.51	3
46	15964	9.61	3
46	16115	9.71	3
46	16522	9.81	3
46	16672	9.91	3
46	16826	10.01	3
46	16976	10.11	3
46	17126	10.21	3
46	17276	10.31	3
46	17426	10.41	3
46	17576	10.51	3
46	17726	10.61	3
46	17876	10.71	3
46	18239	10.81	3
46	18390	10.91	3
46	18544	11.01	3
46	18694	11.11	3
46	18844	11.21	3
46	18994	11.31	3
46	19144	11.41	3
46	19294	11.51	3
46	19444	11.61	3
46	19594	11.71	3
46	19745	11.81	3
46	20108	11.91	3
46	20262	12.01	3
46	20412	12.11	3
46	20562	12.21	3
46	20712	12.31	3
46	20862	12.41	3
46	21012	12.51	3
46	21162	12.61	3
46	21312	12.71	3
46	21462	12.81	3
46	21845	12.91	3
46	22000	13.01	3
46	22150	13.11	3
46	22300	13.21	3
46	22450	13.31	3
46	22600	13.41	3
46	22750	13.51	3
46	22900	13.61	3
46	23050	13.71	3
46	23200	13.81	3
46	23351	13.91	3
46	23738	14.01	3
46	23888	14.11	3
46	24038	14.21	3
46	24188	14.31	3
46	24338	14.41	3
46	24488	14.51	3
46	24638	14.61	3
46	24788	14.71	3
46	24938	14.81	3
46	25088	14.91	3
46	25242	15.01	3
46	25392	15.11	3
46	25542	15.21	3
46	25692	15.31	3
46	25842	15.41	3
46	25992	15.51	3
46	26142	15.61	3
46	26292	15.71	3
46	26442	15.81	3
46	26592	15.91	3
46	26746	16.01	3
46	26896	16.11	3
46	27046	16.21	3
46	27196	16.31	3
46	27346	16.41	3
46	27496	16.51	3
46	27646	16.61	3
46	27796	16.71	3
46	27946	16.81	3
46	28096	16.91	3
46	28250	17.01	3
46	28400	17.11	3
46	28550	17.21	3
46	28700	17.31	3
46	28850	17.41	3
46	29000	17.51	3
46	29150	17.61	3
46	29300	17.71	3
46	29450	17.81	3
46	29600	17.91	3
46	29754	18.01	3
46	29904	18.11	3
46	30054	18.21	3
46	30204	18.31	3
46	30354	18.41	3
46	30504	18.51	3
46	30654	18.61	3
46	30804	18.71	3
46	30954	18.81	3
46	31104	18.91	3
46	31258	19.01	3
46	31408	19.11	3
46	31558	19.21	3
46	31708	19.31	3
46	31858	19.41	3
46	32008	19.51	3
46	32158	19.61	3
46	32308	19.71	3
46	32458	19.81	3
46	32608	19.91	3
46	32762	20.01	3
46	32912	20.11	3
46	33062	20.21	3
46	33212	20.31	3
46	33362	20.41	3
46	33512	20.51	3
46	33662	20.61	3
46	33812	20.71	3
46	33962	20.81	3
46	34112	20.91	3
46	34266	21.01	3
46	34416	21.11	3
46	34566	21.21	3
46	34716	21.31	3
46	34866	21.41	3
46	35016	21.51	3
46	35166	21.61	3
46	35316	21.71	3
46	35466	21.81	3
46	35616	21.91	3
46	35770	22.01	3
46	35920	22.11	3
46	36070	22.21	3
46	36220	22.31	3
46	36370	22.41	3
46	36520	22.51	3
46	36670	22.61	3
46	36820	22.71	3
46	36970	22.81	3
46	37120	22.91	3
46	37274	23.01	3
46	37424	23.11	3
46	37574	23.21	3
46	37724	23.31	3
46	37874	23.41	3
46	38024	23.51	3
46	38174	23.61	3
46	38324	23.71	3
46	38474	23.81	3
46	38624	23.91	3
46	38778	24.01	3
46	38928	24.11	3
46	39078	24.21	3
46	39228	24.31	3
46	39378	24.41	3
46	39528	24.51	3
46	39678	24.61	3
46	39828	24.71	3
46	39978	24.81	3
46	40128	24.91	3
46	40282	25.01	3
46	40432	25.11	3
46	40582	25.21	3
46	40732	25.31	3
46	40882	25.41	3
46	41032	25.51	3
46	41182	25.61	3
46	41333	25.71	3
46	41483	25.81	3
46	41633	25.91	3
46	41787	26.01	3
46	41937	26.11	3
46	42087	26.21	3
46	42237	26.31	3
46	42387	26.41	3
46	42537	26.51	3
46	42687	26.61	3
46	42837	26.71	3
46	42987	26.81	3
46	43137	26.91	3
46	43291	27.01	3
46	43441	27.11	3
46	43591	27.21	3
46	43741	27.31	3
46	43891	27.41	3
46	44041	27.51	3
46	44191	27.61	3
46	44341	27.71	3
46	44491	27.81	3
46	44641	27.91	3
46	44795	28.01	3
46	44945	28.11	3
46	45095	28.21	3
46	45245	28.31	3
46	45395	28.41	3
46	45545	28.51	3
46	45695	28.61	3
46	45845	28.71	3
46	45995	28.81	3
46	46145	28.91	3
46	46299	29.01	3
46	46449	29.11	3
46	46599	29.21	3
46	46749	29.31	3
46	46899	29.41	3
46	47049	29.51	3
46	47199	29.61	3
46	47349	29.71	3
46	47499	29.81	3
46	47649	29.91	3
46	47803	30.01	3
46	47953	30.11	3
46	48103	30.21	3
46	48253	30.31	3
46	48403	30.41	3
46	48553	30.51	3
46	48703	30.61	3
46	48853	30.71	3
46	49003	30.81	3
46	49153	30.91	3
46	49307	31.01	3
46	49457	31.11	3
46	49607	31.21	3
46	49757	31.31	3
46	49907	31.41	3
46	50057	31.51	3
46	50207	31.61	3
46	50357	31.71	3
46	50507	31.81	3
46	50657	31.91	3
67	1191	1	0
67	2911	2	0
67	4629	3	0
67	6391	4	0
67	8109	5	0
67	9827	6	0
67	11589	7	0
67	13307	8	0
67	15025	9	0
67	16787	10	0
67	18505	11	0
67	20223	12	0
67	21961	13	0
67	23699	14	0
67	25203	15	0
67	26707	16	0
67	28211	17	0
67	29715	18	0
67	31219	19	0
67	32723	20	0
67	34227	21	0
67	35731	22	0
67	37235	23	0
67	38739	24	0
67	40243	25	0
67	41748	26	0
67	43252	27	0
67	44756	28	0
67	46260	29	0
67	47764	30	0
67	49268	31	0
66	1191	1	0.009679
66	2911	2	0.013005644494
66	4629	3	0.013005389636
66	6391	4	0.013053151932
66	8109	5	0.013004919444
66	9827	6	0.013004688786
66	11589	7	0.013147459914
66	13307	8	0.013004233112
66	15025	9	0.01300400837
66	16787	10	0.013146785516
66	18505	11	0.013003564372
66	20223	12	0.01300334486
66	21961	13	0.013003127564
66	23699	14	0.01300309392
66	25203	15	0.01249
66	26707	16	0.01249
66	28211	17	0.01249
66	29715	18	0.01249
66	31219	19	0.01249
66	32723	20	0.01249
66	34227	21	0.01249
66	35731	22	0.01249
66	37235	23	0.01249
66	38739	24	0.01249
66	40243	25	0.01249
66	41748	26	0.01249
66	43252	27	0.01249
66	44756	28	0.01249
66	46260	29	0.01249
66	47764	30	0.01249
66	49268	31	0.01249
65	1191	1	3
65	2911	2	3
65	4629	3	3
65	6391	4	3
65	8109	5	3
65	9827	6	3
65	11589	7	3
65	13307	8	3
65	15025	9	3
65	16787	10	3
65	18505	11	3
65	20223	12	3
65	21961	13	3
65	23699	14	3
65	25203	15	3
65	26707	16	3
65	28211	17	3
65	29715	18	3
65	31219	19	3
65	32723	20	3
65	34227	21	3
65	35731	22	3
65	37235	23	3
65	38739	24	3
65	40243	25	3
65	41748	26	3
65	43252	27	3
65	44756	28	3
65	46260	29	3
65	47764	30	3
65	49268	31	3
19	15	0.13	2.2079912693184
19	16	0.14	2.2076802016502
19	17	0.15	2.2073753206761
19	18	0.16	2.2070765649152
19	19	0.17	2.2067838728878
19	20	0.18	2.2064971831289
19	21	0.19	2.2062164341987
19	22	0.2	2.205941564697
19	27	0.21	2.2056725132708
19	62	0.22	2.205409218629
19	97	0.23	2.20515161955
19	98	0.24	2.2048996548957
19	99	0.25	2.2046532636191
19	134	0.26	2.2044123847755
19	135	0.27	2.2041769575335
19	136	0.28	2.203946921183
19	137	0.29	2.203722215147
19	138	0.3	2.2035027789884
19	177	0.31	2.2032885524208
19	212	0.32	2.203079475317
19	247	0.33	2.202875487717
19	248	0.34	2.2026765298383
19	249	0.35	2.2024825420828
19	284	0.36	2.2022934650447
19	285	0.37	2.2021092395195
19	286	0.38	2.2019298065112
19	287	0.39	2.2017551072394
19	288	0.4	2.2015850831466
19	327	0.41	2.2014196759063
19	362	0.42	2.2012588274301
19	397	0.43	2.201102479872
19	398	0.44	2.2009505756382
19	399	0.45	2.2008030573919
19	434	0.46	2.2006598680595
19	435	0.47	2.200520950837
19	436	0.48	2.2003862491952
19	437	0.49	2.2002557068865
19	438	0.5	2.2001292679501
19	477	0.51	2.2000068767164
19	512	0.52	2.1998884778142
19	547	0.53	2.1997740161739
19	548	0.54	2.1996634370332
19	549	0.55	2.1995566859421
19	584	0.56	2.1994537087659
19	585	0.57	2.1993544516923
19	586	0.58	2.1992588612337
19	587	0.59	2.1991668842321
19	588	0.6	2.1990784678626
19	627	0.61	2.1989935596378
19	662	0.62	2.1989121074103
19	697	0.63	2.1988340593791
19	698	0.64	2.1987593640889
19	699	0.65	2.1986879704371
19	734	0.66	2.1986198276748
19	735	0.67	2.1985548854109
19	736	0.68	2.1984930936145
19	737	0.69	2.1984344026177
19	738	0.7	2.1983787631173
19	777	0.71	2.1983261261802
19	812	0.72	2.1982764432425
19	847	0.73	2.1982296661137
19	848	0.74	2.1981857469781
19	849	0.75	2.1981446383965
19	884	0.76	2.1981062933102
19	885	0.77	2.1980706650402
19	886	0.78	2.1980377072899
19	887	0.79	2.1980073741468
19	888	0.8	2.1979796200846
19	927	0.81	2.1979543999639
19	962	0.82	2.197931669032
19	997	0.83	2.1979113829282
19	998	0.84	2.1978934976797
19	999	0.85	2.1978779697066
19	1034	0.86	2.1978647558212
19	1035	0.87	2.1978538132288
19	1036	0.88	2.1978450995281
19	1037	0.89	2.1978385727128
19	1038	0.9	2.1978341911714
19	1077	0.91	2.1978319136872
19	1112	0.92	2.1978316994398
19	1147	0.93	2.1978335080043
19	1148	0.94	2.1978372993519
19	1149	0.95	2.1978430338501
19	1184	0.96	2.1978506722631
19	1185	0.97	2.1978601757506
19	1186	0.98	2.1978715058686
19	1187	0.99	2.1978846245684
19	1192	1	2.1978994941971
19	1231	1.01	2.1979160774974
19	1266	1.02	2.1979343376059
19	1301	1.03	2.1979542380531
19	1302	1.04	2.1979757427643
19	1303	1.05	2.1979988160565
19	1338	1.06	2.1980234226401
19	1339	1.07	2.1980495276156
19	1340	1.08	2.1980770964752
19	1341	1.09	2.1981060951006
19	1342	1.1	2.1981364897623
19	1382	1.11	2.1981682471185
19	1417	1.12	2.1982013342135
19	1452	1.13	2.1982357184785
19	1453	1.14	2.1982713677284
19	1454	1.15	2.1983082501611
19	1489	1.16	2.1983463343565
19	1490	1.17	2.1983855892756
19	1491	1.18	2.1984259842584
19	1492	1.19	2.1984674890222
19	1493	1.2	2.1985100736618
19	1533	1.21	2.1985537086458
19	1568	1.22	2.1985983648159
19	1603	1.23	2.198644013386
19	1604	1.24	2.1986906259401
19	1605	1.25	2.1987381744297
19	1640	1.26	2.1987866311747
19	1641	1.27	2.1988359688574
19	1642	1.28	2.1988861605253
19	1643	1.29	2.1989371795861
19	1644	1.3	2.1989889998068
19	1684	1.31	2.199041595312
19	1931	1.32	2.1990949405812
19	1966	1.33	2.1991490104487
19	1967	1.34	2.1992037801001
19	1968	1.35	2.1992592250695
19	2004	1.36	2.1993153212389
19	2005	1.37	2.1993720448359
19	2006	1.38	2.1994293724315
19	2007	1.39	2.1994872809375
19	2008	1.4	2.1995457476044
19	2047	1.41	2.1996047500198
19	2082	1.42	2.1996642661062
19	2117	1.43	2.1997242741175
19	2118	1.44	2.1997847526384
19	2119	1.45	2.1998456805815
19	2154	1.46	2.1999070371843
19	2155	1.47	2.1999688020082
19	2156	1.48	2.2000309549348
19	2157	1.49	2.2000934761641
19	2158	1.5	2.2001563462126
19	2197	1.51	2.2002195459106
19	2232	1.52	2.2002830563999
19	2267	1.53	2.2003468591312
19	2268	1.54	2.200410935861
19	2269	1.55	2.2004752686506
19	2304	1.56	2.2005398398632
19	2305	1.57	2.2006046321602
19	2306	1.58	2.2006696285006
19	2307	1.59	2.2007348121378
19	2308	1.6	2.2008001666161
19	2347	1.61	2.2008656757696
19	2382	1.62	2.2009313237188
19	2417	1.63	2.2009970948681
19	2418	1.64	2.2010629739048
19	2419	1.65	2.2011289457951
19	2454	1.66	2.2011949957811
19	2455	1.67	2.2012611093792
19	2456	1.68	2.2013272723782
19	2457	1.69	2.2013934708354
19	2458	1.7	2.2014596910742
19	2497	1.71	2.201525919683
19	2532	1.72	2.20159214351
19	2567	1.73	2.2016583496646
19	2568	1.74	2.2017245255101
19	2569	1.75	2.201790658665
19	2604	1.76	2.2018567369995
19	2605	1.77	2.2019227486309
19	2606	1.78	2.201988681923
19	2607	1.79	2.2020545254844
19	2608	1.8	2.2021202681637
19	2647	1.81	2.2021858990475
19	2682	1.82	2.20225140746
19	2717	1.83	2.202316782957
19	2718	1.84	2.2023820153265
19	2719	1.85	2.2024470945846
19	2754	1.86	2.2025120109726
19	2755	1.87	2.2025767549556
19	2756	1.88	2.2026413172197
19	2757	1.89	2.202705688669
19	2758	1.9	2.2027698604236
19	2797	1.91	2.2028338238168
19	2832	1.92	2.2028975703922
19	2867	1.93	2.2029610919029
19	2868	1.94	2.2030243803065
19	2869	1.95	2.2030874277655
19	2904	1.96	2.2031502266425
19	2905	1.97	2.203212769498
19	2906	1.98	2.2032750490906
19	2907	1.99	2.2033370583701
19	2912	2	2.2033987904797
19	2951	2.01	2.20346023875
19	2986	2.02	2.2035213966984
19	3021	2.03	2.2035822580268
19	3022	2.04	2.2036428166182
19	3023	2.05	2.2037030665351
19	3058	2.06	2.2037630020173
19	3059	2.07	2.2038226174789
19	3060	2.08	2.2038819075058
19	3061	2.09	2.2039408668552
19	3062	2.1	2.203999490451
19	3101	2.11	2.204057773382
19	3136	2.12	2.2041157109017
19	3171	2.13	2.2041732984231
19	3172	2.14	2.2042305315185
19	3173	2.15	2.2042874059152
19	3208	2.16	2.2043439174965
19	3209	2.17	2.2044000622965
19	3210	2.18	2.2044558364985
19	3211	2.19	2.2045112364344
19	3212	2.2	2.2045662585811
19	3251	2.21	2.2046208995588
19	3286	2.22	2.204675156128
19	3321	2.23	2.2047290251887
19	3322	2.24	2.2047825037773
19	3323	2.25	2.2048355890651
19	3358	2.26	2.2048882783563
19	3359	2.27	2.2049405690845
19	3360	2.28	2.2049924588135
19	3361	2.29	2.2050439452317
19	3362	2.3	2.2050950261533
19	3401	2.31	2.2051456995137
19	3436	2.32	2.2051959633698
19	3471	2.33	2.2052458158963
19	3472	2.34	2.2052952553845
19	3473	2.35	2.20534428024
19	3509	2.36	2.205392888981
19	3722	2.37	2.205441080236
19	3723	2.38	2.2054888527433
19	3724	2.39	2.2055362053472
19	3725	2.4	2.2055831369972
19	3765	2.41	2.2056296467453
19	3800	2.42	2.2056757337463
19	3835	2.43	2.2057213972529
19	3836	2.44	2.2057666366165
19	3837	2.45	2.205811451284
19	3872	2.46	2.2058558407962
19	3873	2.47	2.2058998047869
19	3874	2.48	2.20594334298
19	3875	2.49	2.2059864551881
19	3876	2.5	2.2060291413117
19	3915	2.51	2.2060714013357
19	3950	2.52	2.2061132353298
19	3985	2.53	2.2061546434456
19	3986	2.54	2.2061956259153
19	3987	2.55	2.2062361830498
19	4022	2.56	2.2062763152375
19	4023	2.57	2.2063160229422
19	4024	2.58	2.2063553067021
19	4025	2.59	2.2063941671281
19	4026	2.6	2.2064326049014
19	4065	2.61	2.2064706207736
19	4100	2.62	2.2065082155639
19	4135	2.63	2.2065453901575
19	4136	2.64	2.2065821455053
19	4137	2.65	2.206618482621
19	4172	2.66	2.2066544025815
19	4173	2.67	2.2066899065238
19	4174	2.68	2.2067249956445
19	4175	2.69	2.2067596711973
19	4176	2.7	2.2067939344929
19	4215	2.71	2.206827786897
19	4250	2.72	2.2068612298291
19	4285	2.73	2.2068942647611
19	4286	2.74	2.2069268932167
19	4287	2.75	2.2069591167678
19	4322	2.76	2.206990937037
19	4323	2.77	2.207022355692
19	4324	2.78	2.2070533744483
19	4325	2.79	2.2070839950652
19	4326	2.8	2.207114219346
19	4365	2.81	2.2071440491357
19	4400	2.82	2.2071734863212
19	4435	2.83	2.2072025328288
19	4436	2.84	2.2072311906246
19	4437	2.85	2.2072594617111
19	4472	2.86	2.2072873481278
19	4473	2.87	2.2073148519498
19	4474	2.88	2.2073419752864
19	4475	2.89	2.2073687202808
19	4476	2.9	2.2073950891067
19	4515	2.91	2.2074210839707
19	4550	2.92	2.2074467071085
19	4585	2.93	2.2074719607848
19	4586	2.94	2.2074968472933
19	4587	2.95	2.2075213689533
19	4622	2.96	2.2075455281108
19	4623	2.97	2.2075693271377
19	4624	2.98	2.2075927684282
19	4625	2.99	2.2076158544016
19	4630	3	2.2076385874983
19	4669	3.01	2.2076609701799
19	4704	3.02	2.2076830049286
19	4739	3.03	2.2077046942472
19	4740	3.04	2.2077260406554
19	4741	3.05	2.207747046692
19	4776	3.06	2.2077677149125
19	4777	3.07	2.2077880478886
19	4778	3.08	2.2078080482066
19	4779	3.09	2.2078277184679
19	4780	3.1	2.2078470612871
19	4819	3.11	2.2078660792924
19	4854	3.12	2.2078847751242
19	4889	3.13	2.2079031514337
19	4890	3.14	2.2079212108834
19	4891	3.15	2.207938956145
19	4926	3.16	2.2079563899
19	4927	3.17	2.2079735148376
19	4928	3.18	2.2079903336559
19	4929	3.19	2.208006849059
19	4930	3.2	2.2080230637587
19	4969	3.21	2.2080389804714
19	5004	3.22	2.2080546019193
19	5039	3.23	2.2080699308293
19	5040	3.24	2.2080849699319
19	5041	3.25	2.2080997219609
19	5076	3.26	2.2081141896527
19	5077	3.27	2.2081283757455
19	5078	3.28	2.2081422829792
19	5079	3.29	2.2081559140953
19	5080	3.3	2.2081692718354
19	5119	3.31	2.2081823589399
19	5154	3.32	2.2081951781503
19	5189	3.33	2.2082077322053
19	5190	3.34	2.2082200238427
19	5191	3.35	2.2082320557978
19	5226	3.36	2.2082438308034
19	5227	3.37	2.2082553515892
19	5228	3.38	2.2082666208803
19	5229	3.39	2.2082776413989
19	5230	3.4	2.2082884158617
19	5270	3.41	2.2082989469813
19	5561	3.42	2.2083092374637
19	5596	3.43	2.2083192900103
19	5597	3.44	2.2083291073148
19	5598	3.45	2.2083386920651
19	5634	3.46	2.2083480469413
19	5635	3.47	2.2083571746168
19	5636	3.48	2.2083660777569
19	5637	3.49	2.2083747590187
19	5638	3.5	2.2083832210504
19	5677	3.51	2.2083914664916
19	5712	3.52	2.208399497972
19	5747	3.53	2.2084073181123
19	5748	3.54	2.2084149295233
19	5749	3.55	2.2084223348053
19	5784	3.56	2.208429536548
19	5785	3.57	2.2084365373301
19	5786	3.58	2.2084433397189
19	5787	3.59	2.2084499462714
19	5788	3.6	2.2084563595319
19	5827	3.61	2.2084625820331
19	5862	3.62	2.2084686162948
19	5897	3.63	2.2084744648252
19	5898	3.64	2.2084801301193
19	5899	3.65	2.2084856146588
19	5934	3.66	2.2084909209128
19	5935	3.67	2.2084960513368
19	5936	3.68	2.208501008372
19	5937	3.69	2.2085057944467
19	5938	3.7	2.208510411974
19	5977	3.71	2.2085148633535
19	6012	3.72	2.2085191509704
19	6047	3.73	2.2085232771953
19	6048	3.74	2.2085272443829
19	6049	3.75	2.2085310548747
19	6084	3.76	2.2085347109949
19	6085	3.77	2.2085382150544
19	6086	3.78	2.2085415693469
19	6087	3.79	2.2085447761521
19	6088	3.8	2.2085478377324
19	6127	3.81	2.2085507563352
19	6162	3.82	2.2085535341916
19	6197	3.83	2.208556173517
19	6198	3.84	2.2085586765099
19	6199	3.85	2.2085610453531
19	6234	3.86	2.2085632822121
19	6235	3.87	2.2085653892362
19	6236	3.88	2.2085673685581
19	6237	3.89	2.2085692222935
19	6238	3.9	2.2085709525417
19	6277	3.91	2.2085725613843
19	6312	3.92	2.2085740508866
19	6347	3.93	2.2085754230963
19	6348	3.94	2.2085766800447
19	6349	3.95	2.2085778237446
19	6384	3.96	2.2085788561928
19	6385	3.97	2.208579779368
19	6386	3.98	2.2085805952323
19	6387	3.99	2.208581305729
19	6392	4	2.2085819127853
19	6431	4.01	2.2085824183105
19	6466	4.02	2.2085828241958
19	6501	4.03	2.2085831323156
19	6502	4.04	2.2085833445263
19	6503	4.05	2.208583462667
19	6538	4.06	2.2085834885591
19	6539	4.07	2.2085834240061
19	6540	4.08	2.2085832707942
19	6541	4.09	2.2085830306919
19	6542	4.1	2.2085827054499
19	6581	4.11	2.2085822968011
19	6616	4.12	2.2085818064613
19	6651	4.13	2.208581236128
19	6652	4.14	2.208580587482
19	6653	4.15	2.2085798621859
19	6688	4.16	2.2085790618848
19	6689	4.17	2.2085781882065
19	6690	4.18	2.2085772427605
19	6691	4.19	2.2085762271401
19	6692	4.2	2.20857514292
19	6731	4.21	2.2085739916578
19	6766	4.22	2.208572774894
19	6801	4.23	2.2085714941511
19	6802	4.24	2.208570150935
19	6803	4.25	2.2085687467343
19	6838	4.26	2.2085672830197
19	6839	4.27	2.2085657612451
19	6840	4.28	2.2085641828472
19	6841	4.29	2.2085625492461
19	6842	4.3	2.2085608618446
19	6881	4.31	2.2085591220278
19	6916	4.32	2.2085573311653
19	6951	4.33	2.2085554906086
19	6952	4.34	2.2085536016934
19	6953	4.35	2.208551665738
19	6988	4.36	2.2085496840444
19	6989	4.37	2.2085476578977
19	6990	4.38	2.2085455885675
19	6991	4.39	2.2085434773055
19	6992	4.4	2.2085413253482
19	7031	4.41	2.2085391339156
19	7066	4.42	2.2085369042114
19	7101	4.43	2.2085346374233
19	7102	4.44	2.2085323347222
19	7103	4.45	2.2085299972647
19	7139	4.46	2.2085276261898
19	7352	4.47	2.208525222622
19	7353	4.48	2.20852278767
19	7354	4.49	2.208520322426
19	7355	4.5	2.2085178279676
19	7395	4.51	2.2085153053564
19	7430	4.52	2.20851275564
19	7465	4.53	2.2085101798486
19	7466	4.54	2.2085075789991
19	7467	4.55	2.2085049540932
19	7502	4.56	2.2085023061171
19	7503	4.57	2.2084996360416
19	7504	4.58	2.2084969448243
19	7505	4.59	2.2084942334075
19	7506	4.6	2.2084915027184
19	7545	4.61	2.2084887536707
19	7580	4.62	2.208485987163
19	7615	4.63	2.2084832040802
19	7616	4.64	2.2084804052933
19	7617	4.65	2.2084775916586
19	7652	4.66	2.208474764019
19	7653	4.67	2.2084719232038
19	7654	4.68	2.2084690700286
19	7655	4.69	2.2084662052947
19	7656	4.7	2.2084633297908
19	7695	4.71	2.2084604442912
19	7730	4.72	2.2084575495585
19	7765	4.73	2.208454646341
19	7766	4.74	2.2084517353743
19	7767	4.75	2.2084488173812
19	7802	4.76	2.2084458930713
19	7803	4.77	2.2084429631423
19	7804	4.78	2.2084400282789
19	7805	4.79	2.2084370891526
19	7806	4.8	2.2084341464241
19	7845	4.81	2.2084312007405
19	7880	4.82	2.2084282527374
19	7915	4.83	2.2084253030386
19	7916	4.84	2.2084223522561
19	7917	4.85	2.2084194009886
19	7952	4.86	2.2084164498252
19	7953	4.87	2.2084134993425
19	7954	4.88	2.208410550105
19	7955	4.89	2.2084076026671
19	7956	4.9	2.2084046575713
19	7995	4.91	2.2084017153493
19	8030	4.92	2.2083987765214
19	8065	4.93	2.2083958415971
19	8066	4.94	2.2083929110762
19	8067	4.95	2.2083899854459
19	8102	4.96	2.2083870651844
19	8103	4.97	2.2083841507591
19	8104	4.98	2.2083812426273
19	8105	4.99	2.2083783412354
19	8110	5	2.2083754470207
19	8149	5.01	2.2083725604095
19	8184	5.02	2.2083696818186
19	8219	5.03	2.2083668116553
19	8220	5.04	2.2083639503173
19	8221	5.05	2.2083610981921
19	8256	5.06	2.2083582556591
19	8257	5.07	2.2083554230866
19	8258	5.08	2.2083526008357
19	8259	5.09	2.2083497892569
19	8260	5.1	2.2083469886922
19	8299	5.11	2.2083441994749
19	8334	5.12	2.2083414219292
19	8369	5.13	2.2083386563709
19	8370	5.14	2.2083359031075
19	8371	5.15	2.2083331624375
19	8406	5.16	2.2083304346516
19	8407	5.17	2.2083277200318
19	8408	5.18	2.2083250188522
19	8409	5.19	2.2083223313789
19	8410	5.2	2.2083196578703
19	8449	5.21	2.2083169985767
19	8484	5.22	2.2083143537413
19	8519	5.23	2.2083117235985
19	8520	5.24	2.2083091083763
19	8521	5.25	2.2083065082947
19	8556	5.26	2.2083039235671
19	8557	5.27	2.2083013543984
19	8558	5.28	2.2082988009881
19	8559	5.29	2.2082962635277
19	8560	5.3	2.2082937422018
19	8599	5.31	2.2082912371886
19	8634	5.32	2.2082887486593
19	8669	5.33	2.2082862767785
19	8670	5.34	2.2082838217046
19	8671	5.35	2.2082813835898
19	8706	5.36	2.2082789625786
19	8707	5.37	2.208276558811
19	8708	5.38	2.2082741724207
19	8709	5.39	2.2082718035343
19	8710	5.4	2.2082694522734
19	8749	5.41	2.2082671187529
19	8784	5.42	2.208264803083
19	8819	5.43	2.2082625053675
19	8820	5.44	2.2082602257052
19	8821	5.45	2.2082579641887
19	8856	5.46	2.2082557209055
19	8857	5.47	2.2082534959383
19	8858	5.48	2.2082512893646
19	8859	5.49	2.2082491012558
19	8860	5.5	2.208246931679
19	8900	5.51	2.2082447806967
19	9147	5.52	2.2082426483655
19	9182	5.53	2.2082405347379
19	9183	5.54	2.2082384398619
19	9184	5.55	2.2082363637802
19	9220	5.56	2.2082343065312
19	9221	5.57	2.2082322681497
19	9222	5.58	2.2082302486649
19	9223	5.59	2.2082282481029
19	9224	5.6	2.2082262664844
19	9263	5.61	2.2082243038267
19	9298	5.62	2.2082223601424
19	9333	5.63	2.2082204354409
19	9334	5.64	2.2082185297276
19	9335	5.65	2.2082166430032
19	9370	5.66	2.2082147752664
19	9371	5.67	2.2082129265098
19	9372	5.68	2.2082110967249
19	9373	5.69	2.2082092858977
19	9374	5.7	2.2082074940121
19	9413	5.71	2.2082057210476
19	9448	5.72	2.2082039669815
19	9483	5.73	2.2082022317865
19	9484	5.74	2.2082005154332
19	9485	5.75	2.2081988178883
19	9520	5.76	2.2081971391164
19	9521	5.77	2.2081954790782
19	9522	5.78	2.2081938377317
19	9523	5.79	2.2081922150328
19	9524	5.8	2.2081906109334
19	9563	5.81	2.2081890253841
19	9598	5.82	2.2081874583315
19	9633	5.83	2.2081859097202
19	9634	5.84	2.2081843794926
19	9635	5.85	2.208182867588
19	9670	5.86	2.2081813739436
19	9671	5.87	2.2081798984944
19	9672	5.88	2.2081784411723
19	9673	5.89	2.2081770019085
19	9674	5.9	2.2081755806305
19	9713	5.91	2.208174177265
19	9748	5.92	2.2081727917348
19	9783	5.93	2.208171423963
19	9784	5.94	2.2081700738693
19	9785	5.95	2.2081687413713
19	9820	5.96	2.2081674263859
19	9821	5.97	2.2081661288268
19	9822	5.98	2.2081648486075
19	9823	5.99	2.2081635856388
19	9828	6	2.2081623398297
19	9867	6.01	2.2081611110888
19	9902	6.02	2.2081598993217
19	9937	6.03	2.2081587044331
19	9938	6.04	2.208157526327
19	9939	6.05	2.2081563649048
19	9974	6.06	2.2081552200672
19	9975	6.07	2.2081540917135
19	9976	6.08	2.2081529797416
19	9977	6.09	2.2081518840486
19	9978	6.1	2.2081508045299
19	10017	6.11	2.2081497410806
19	10052	6.12	2.2081486935937
19	10087	6.13	2.2081476619612
19	10088	6.14	2.2081466460753
19	10089	6.15	2.2081456458258
19	10124	6.16	2.2081446611024
19	10125	6.17	2.2081436917939
19	10126	6.18	2.208142737788
19	10127	6.19	2.2081417989723
19	10128	6.2	2.2081408752323
19	10167	6.21	2.2081399664534
19	10202	6.22	2.2081390725211
19	10237	6.23	2.2081381933188
19	10238	6.24	2.2081373287305
19	10239	6.25	2.2081364786397
19	10274	6.26	2.2081356429282
19	10275	6.27	2.2081348214781
[...]
2	66149	55.23	931.55726268403
2	66150	55.24	931.69615168374
2	66151	55.25	931.83504068346
2	66170	55.26	931.97392968317
2	66171	55.27	932.11281868289
2	66172	55.28	932.2517076826
2	66173	55.29	932.39059668231
2	66174	55.3	932.52948568203
2	66177	55.31	932.66837468175
2	66178	55.32	932.80726368146
2	66197	55.33	932.94615268118
2	66198	55.34	933.0850416809
2	66199	55.35	933.22393068061
2	66218	55.36	933.36281968033
2	66219	55.37	933.50170868005
2	66220	55.38	933.64059767977
2	66221	55.39	933.77948667949
2	66222	55.4	933.91837567921
2	66225	55.41	934.05726467893
2	66226	55.42	934.19615367865
2	66245	55.43	934.33504267837
2	66246	55.44	934.47393167809
2	66247	55.45	934.61282067782
2	66266	55.46	934.75170967754
2	66267	55.47	934.89059867726
2	66268	55.48	935.02948767698
2	66269	55.49	935.16837667671
2	66270	55.5	935.30726567643
2	66273	55.51	935.44615467616
2	66274	55.52	935.58504367588
2	66293	55.53	935.72393267561
2	66294	55.54	935.86282167533
2	66295	55.55	936.00171067506
2	66314	55.56	936.14059967479
2	66315	55.57	936.27948867451
2	66316	55.58	936.41837767424
2	66317	55.59	936.55726667397
2	66318	55.6	936.6961556737
2	66321	55.61	936.83504467343
2	66322	55.62	936.97393367316
2	66341	55.63	937.11282267289
2	66342	55.64	937.25171167262
2	66343	55.65	937.39060067235
2	66362	55.66	937.52948967208
2	66363	55.67	937.66837867181
2	66364	55.68	937.80726767154
2	66365	55.69	937.94615667127
2	66366	55.7	938.08504567101
2	66369	55.71	938.22393467074
2	66370	55.72	938.36282367047
2	66389	55.73	938.50171267021
2	66390	55.74	938.64060166994
2	66391	55.75	938.77949066968
2	66410	55.76	938.91837966941
2	66411	55.77	939.05726866915
2	66412	55.78	939.19615766888
2	66413	55.79	939.33504666862
2	66414	55.8	939.47393566836
2	66417	55.81	939.61282466809
2	66418	55.82	939.75171366783
2	66437	55.83	939.89060266757
2	66438	55.84	940.02949166731
2	66439	55.85	940.16838066705
2	66458	55.86	940.30726966679
2	66459	55.87	940.44615866653
2	66460	55.88	940.58504766627
2	66461	55.89	940.72393666601
2	66462	55.9	940.86282566575
2	66465	55.91	941.00171466549
2	66466	55.92	941.14060366523
2	66485	55.93	941.27949266497
2	66486	55.94	941.41838166472
2	66487	55.95	941.55727066446
2	66506	55.96	941.6961596642
2	66507	55.97	941.83504866395
2	66508	55.98	941.97393766369
2	66509	55.99	942.11282666343
2	66512	56	942.25171566318
2	66515	56.01	942.39060466292
2	66516	56.02	942.52949366267
2	66535	56.03	942.66838266242
2	66536	56.04	942.80727166216
2	66537	56.05	942.94616066191
2	66556	56.06	943.08504966166
2	66557	56.07	943.2239386614
2	66558	56.08	943.36282766115
2	66559	56.09	943.5017166609
2	66560	56.1	943.64060566065
2	66563	56.11	943.7794946604
2	66564	56.12	943.91838366015
2	66583	56.13	944.0572726599
2	66584	56.14	944.19616165965
2	66585	56.15	944.3350506594
2	66604	56.16	944.47393965915
2	66605	56.17	944.6128286589
2	66606	56.18	944.75171765866
2	66607	56.19	944.89060665841
2	66608	56.2	945.02949565816
2	66611	56.21	945.16838465791
2	66612	56.22	945.30727365767
2	66631	56.23	945.44616265742
2	66632	56.24	945.58505165718
2	66633	56.25	945.72394065693
2	66652	56.26	945.86282965669
2	66653	56.27	946.00171865644
2	66654	56.28	946.1406076562
2	66655	56.29	946.27949665595
2	66656	56.3	946.41838565571
2	66659	56.31	946.55727465547
2	66660	56.32	946.69616365522
2	66679	56.33	946.83505265498
2	66680	56.34	946.97394165474
2	66681	56.35	947.1128306545
2	66700	56.36	947.25171965426
2	66701	56.37	947.39060865402
2	66702	56.38	947.52949765378
2	66703	56.39	947.66838665354
2	66704	56.4	947.8072756533
2	66707	56.41	947.94616465306
2	66708	56.42	948.08505365282
2	66727	56.43	948.22394265258
2	66728	56.44	948.36283165234
2	66729	56.45	948.5017206521
2	66748	56.46	948.64060965187
2	66749	56.47	948.77949865163
2	66750	56.48	948.91838765139
2	66751	56.49	949.05727665116
2	66752	56.5	949.19616565092
2	66755	56.51	949.33505465069
2	66756	56.52	949.47394365045
2	66775	56.53	949.61283265022
2	66776	56.54	949.75172164998
2	66777	56.55	949.89061064975
2	66796	56.56	950.02949964951
2	66797	56.57	950.16838864928
2	66798	56.58	950.30727764905
2	66799	56.59	950.44616664881
2	66800	56.6	950.58505564858
2	66803	56.61	950.72394464835
2	66804	56.62	950.86283364812
2	66823	56.63	951.00172264789
2	66824	56.64	951.14061164766
2	66825	56.65	951.27950064743
2	66844	56.66	951.4183896472
2	66845	56.67	951.55727864697
2	66846	56.68	951.69616764674
2	66847	56.69	951.83505664651
2	66848	56.7	951.97394564628
2	66851	56.71	952.11283464605
2	66852	56.72	952.25172364582
2	66871	56.73	952.3906126456
2	66872	56.74	952.52950164537
2	66873	56.75	952.66839064514
2	66892	56.76	952.80727964491
2	66893	56.77	952.94616864469
2	66894	56.78	953.08505764446
2	66895	56.79	953.22394664424
2	66896	56.8	953.36283564401
2	66899	56.81	953.50172464379
2	66900	56.82	953.64061364356
2	66919	56.83	953.77950264334
2	66920	56.84	953.91839164312
2	66921	56.85	954.05728064289
2	66940	56.86	954.19616964267
2	66941	56.87	954.33505864245
2	66942	56.88	954.47394764222
2	66943	56.89	954.612836642
2	66944	56.9	954.75172564178
2	66947	56.91	954.89061464156
2	66948	56.92	955.02950364134
2	66967	56.93	955.16839264112
2	66968	56.94	955.3072816409
2	66969	56.95	955.44617064068
2	66988	56.96	955.58505964046
2	66989	56.97	955.72394864024
2	66990	56.98	955.86283764002
2	66991	56.99	956.0017266398
2	66994	57	956.14061563958
2	66997	57.01	956.27950463937
2	66998	57.02	956.41839363915
2	67017	57.03	956.55728263893
2	67018	57.04	956.69617163871
2	67019	57.05	956.8350606385
2	67038	57.06	956.97394963828
2	67039	57.07	957.11283863806
2	67040	57.08	957.25172763785
2	67041	57.09	957.39061663763
2	67042	57.1	957.52950563742
2	67045	57.11	957.66839463721
2	67046	57.12	957.80728363699
2	67065	57.13	957.94617263678
2	67066	57.14	958.08506163656
2	67067	57.15	958.22395063635
2	67086	57.16	958.36283963614
2	67087	57.17	958.50172863593
2	67088	57.18	958.64061763571
2	67089	57.19	958.7795066355
2	67090	57.2	958.91839563529
2	67093	57.21	959.05728463508
2	67094	57.22	959.19617363487
2	67113	57.23	959.33506263466
2	67114	57.24	959.47395163445
2	67115	57.25	959.61284063424
2	67134	57.26	959.75172963403
2	67135	57.27	959.89061863382
2	67136	57.28	960.02950763361
2	67137	57.29	960.1683966334
2	67138	57.3	960.30728563319
2	67141	57.31	960.44617463299
2	67142	57.32	960.58506363278
2	67161	57.33	960.72395263257
2	67162	57.34	960.86284163236
2	67163	57.35	961.00173063216
2	67182	57.36	961.14061963195
2	67183	57.37	961.27950863174
2	67184	57.38	961.41839763154
2	67185	57.39	961.55728663133
2	67186	57.4	961.69617563113
2	67189	57.41	961.83506463092
2	67190	57.42	961.97395363072
2	67209	57.43	962.11284263052
2	67210	57.44	962.25173163031
2	67211	57.45	962.39062063011
2	67230	57.46	962.52950962991
2	67231	57.47	962.6683986297
2	67232	57.48	962.8072876295
2	67233	57.49	962.9461766293
2	67234	57.5	963.0850656291
2	67237	57.51	963.22395462889
2	67238	57.52	963.36284362869
2	67257	57.53	963.50173262849
2	67258	57.54	963.64062162829
2	67259	57.55	963.77951062809
2	67278	57.56	963.91839962789
2	67279	57.57	964.05728862769
2	67280	57.58	964.19617762749
2	67281	57.59	964.33506662729
2	67282	57.6	964.4739556271
2	67285	57.61	964.6128446269
2	67286	57.62	964.7517336267
2	67305	57.63	964.8906226265
2	67306	57.64	965.0295116263
2	67307	57.65	965.16840062611
2	67326	57.66	965.30728962591
2	67327	57.67	965.44617862571
2	67328	57.68	965.58506762552
2	67329	57.69	965.72395662532
2	67330	57.7	965.86284562513
2	67333	57.71	966.00173462493
2	67334	57.72	966.14062362474
2	67353	57.73	966.27951262454
2	67354	57.74	966.41840162435
2	67355	57.75	966.55729062415
2	67374	57.76	966.69617962396
2	67375	57.77	966.83506862377
2	67376	57.78	966.97395762357
2	67377	57.79	967.11284662338
2	67378	57.8	967.25173562319
2	67381	57.81	967.39062462299
2	67382	57.82	967.5295136228
2	67401	57.83	967.66840262261
2	67402	57.84	967.80729162242
2	67403	57.85	967.94618062223
2	67422	57.86	968.08506962204
2	67423	57.87	968.22395862185
2	67424	57.88	968.36284762166
2	67425	57.89	968.50173662147
2	67426	57.9	968.64062562128
2	67429	57.91	968.77951462109
2	67430	57.92	968.9184036209
2	67449	57.93	969.05729262071
2	67450	57.94	969.19618162052
2	67451	57.95	969.33507062033
2	67470	57.96	969.47395962015
2	67471	57.97	969.61284861996
2	67472	57.98	969.75173761977
2	67473	57.99	969.89062661958
2	67476	58	970.0295156194
2	67479	58.01	970.16840461921
2	67480	58.02	970.30729361903
2	67499	58.03	970.44618261884
2	67500	58.04	970.58507161865
2	67501	58.05	970.72396061847
2	67520	58.06	970.86284961828
2	67521	58.07	971.0017386181
2	67522	58.08	971.14062761791
2	67523	58.09	971.27951661773
2	67524	58.1	971.41840561755
2	67527	58.11	971.55729461736
2	67528	58.12	971.69618361718
2	67547	58.13	971.835072617
2	67548	58.14	971.97396161681
2	67549	58.15	972.11285061663
2	67568	58.16	972.25173961645
2	67569	58.17	972.39062861627
2	67570	58.18	972.52951761609
2	67571	58.19	972.66840661591
2	67572	58.2	972.80729561573
2	67575	58.21	972.94618461554
2	67576	58.22	973.08507361536
2	67595	58.23	973.22396261518
2	67596	58.24	973.362851615
2	67597	58.25	973.50174061482
2	67616	58.26	973.64062961465
2	67617	58.27	973.77951861447
2	67618	58.28	973.91840761429
2	67619	58.29	974.05729661411
2	67620	58.3	974.19618561393
2	67623	58.31	974.33507461375
2	67624	58.32	974.47396361358
2	67643	58.33	974.6128526134
2	67644	58.34	974.75174161322
2	67645	58.35	974.89063061304
2	67664	58.36	975.02951961287
2	67665	58.37	975.16840861269
2	67666	58.38	975.30729761252
2	67667	58.39	975.44618661234
2	67668	58.4	975.58507561217
2	67671	58.41	975.72396461199
2	67672	58.42	975.86285361182
2	67691	58.43	976.00174261164
2	67692	58.44	976.14063161147
2	67693	58.45	976.27952061129
2	67712	58.46	976.41840961112
2	67713	58.47	976.55729861095
2	67714	58.48	976.69618761077
2	67715	58.49	976.8350766106
2	67716	58.5	976.97396561043
2	67719	58.51	977.11285461025
2	67720	58.52	977.25174361008
2	67739	58.53	977.39063260991
2	67740	58.54	977.52952160974
2	67741	58.55	977.66841060957
2	67760	58.56	977.8072996094
2	67761	58.57	977.94618860923
2	67762	58.58	978.08507760906
2	67763	58.59	978.22396660889
2	67764	58.6	978.36285560872
2	67767	58.61	978.50174460855
2	67768	58.62	978.64063360838
2	67787	58.63	978.77952260821
2	67788	58.64	978.91841160804
2	67789	58.65	979.05730060787
2	67808	58.66	979.1961896077
2	67809	58.67	979.33507860753
2	67810	58.68	979.47396760736
2	67811	58.69	979.6128566072
2	67812	58.7	979.75174560703
2	67815	58.71	979.89063460686
2	67816	58.72	980.0295236067
2	67835	58.73	980.16841260653
2	67836	58.74	980.30730160636
2	67837	58.75	980.4461906062
2	67856	58.76	980.58507960603
2	67857	58.77	980.72396860587
2	67858	58.78	980.8628576057
2	67859	58.79	981.00174660554
2	67860	58.8	981.14063560537
2	67863	58.81	981.27952460521
2	67864	58.82	981.41841360504
2	67883	58.83	981.55730260488
2	67884	58.84	981.69619160471
2	67885	58.85	981.83508060455
2	67904	58.86	981.97396960439
2	67905	58.87	982.11285860422
2	67906	58.88	982.25174760406
2	67907	58.89	982.3906366039
2	67908	58.9	982.52952560374
2	67911	58.91	982.66841460358
2	67912	58.92	982.80730360341
2	67931	58.93	982.94619260325
2	67932	58.94	983.08508160309
2	67933	58.95	983.22397060293
2	67952	58.96	983.36285960277
2	67953	58.97	983.50174860261
2	67954	58.98	983.64063760245
2	67955	58.99	983.77952660229
2	67958	59	983.91841560213
2	67961	59.01	984.05730460197
2	67962	59.02	984.19619360181
2	67981	59.03	984.33508260165
2	67982	59.04	984.47397160149
2	67983	59.05	984.61286060133
2	68002	59.06	984.75174960118
2	68003	59.07	984.89063860102
2	68004	59.08	985.02952760086
2	68005	59.09	985.1684166007
2	68006	59.1	985.30730560055
2	68009	59.11	985.44619460039
2	68010	59.12	985.58508360023
2	68029	59.13	985.72397260008
2	68030	59.14	985.86286159992
2	68031	59.15	986.00175059976
2	68050	59.16	986.14063959961
2	68051	59.17	986.27952859945
2	68052	59.18	986.4184175993
2	68053	59.19	986.55730659914
2	68054	59.2	986.69619559899
2	68057	59.21	986.83508459883
2	68058	59.22	986.97397359868
2	68077	59.23	987.11286259852
2	68078	59.24	987.25175159837
2	68079	59.25	987.39064059822
2	68098	59.26	987.52952959806
2	68099	59.27	987.66841859791
2	68100	59.28	987.80730759776
2	68101	59.29	987.94619659761
2	68102	59.3	988.08508559745
2	68105	59.31	988.2239745973
2	68106	59.32	988.36286359715
2	68125	59.33	988.501752597
2	68126	59.34	988.64064159685
2	68127	59.35	988.77953059669
2	68146	59.36	988.91841959654
2	68147	59.37	989.05730859639
2	68148	59.38	989.19619759624
2	68149	59.39	989.33508659609
2	68150	59.4	989.47397559594
2	68153	59.41	989.61286459579
2	68154	59.42	989.75175359564
2	68173	59.43	989.89064259549
2	68174	59.44	990.02953159534
2	68175	59.45	990.1684205952
2	68194	59.46	990.30730959505
2	68195	59.47	990.4461985949
2	68196	59.48	990.58508759475
2	68197	59.49	990.7239765946
2	68198	59.5	990.86286559446
2	68201	59.51	991.00175459431
2	68202	59.52	991.14064359416
2	68221	59.53	991.27953259401
2	68222	59.54	991.41842159387
2	68223	59.55	991.55731059372
2	68242	59.56	991.69619959357
2	68243	59.57	991.83508859343
2	68244	59.58	991.97397759328
2	68245	59.59	992.11286659314
2	68246	59.6	992.25175559299
2	68249	59.61	992.39064459285
2	68250	59.62	992.5295335927
2	68269	59.63	992.66842259256
2	68270	59.64	992.80731159241
2	68271	59.65	992.94620059227
2	68290	59.66	993.08508959212
2	68291	59.67	993.22397859198
2	68292	59.68	993.36286759183
2	68293	59.69	993.50175659169
2	68294	59.7	993.64064559155
2	68297	59.71	993.77953459141
2	68298	59.72	993.91842359126
2	68317	59.73	994.05731259112
2	68318	59.74	994.19620159098
2	68319	59.75	994.33509059084
2	68338	59.76	994.47397959069
2	68339	59.77	994.61286859055
2	68340	59.78	994.75175759041
2	68341	59.79	994.89064659027
2	68342	59.8	995.02953559013
2	68345	59.81	995.16842458999
2	68346	59.82	995.30731358985
2	68365	59.83	995.44620258971
2	68366	59.84	995.58509158957
2	68367	59.85	995.72398058943
2	68386	59.86	995.86286958929
2	68387	59.87	996.00175858915
2	68388	59.88	996.14064758901
2	68389	59.89	996.27953658887
2	68390	59.9	996.41842558873
2	68393	59.91	996.55731458859
2	68394	59.92	996.69620358845
2	68413	59.93	996.83509258832
2	68414	59.94	996.97398158818
2	68415	59.95	997.11287058804
2	68434	59.96	997.2517595879
2	68435	59.97	997.39064858777
2	68436	59.98	997.52953758763
2	68437	59.99	997.66842658749
2	68440	60	997.80731558736
2	68443	60.01	997.94620458722
2	68444	60.02	998.08509358708
2	68463	60.03	998.22398258695
2	68464	60.04	998.36287158681
2	68465	60.05	998.50176058668
2	68484	60.06	998.64064958654
2	68485	60.07	998.77953858641
2	68486	60.08	998.91842758627
2	68487	60.09	999.05731658614
2	68488	60.1	999.196205586
2	68491	60.11	999.33509458587
2	68492	60.12	999.47398358573
2	68511	60.13	999.6128725856
2	68512	60.14	999.75176158547
2	68513	60.15	999.89065058533
2	68532	60.16	1000.0295395852
2	68533	60.17	1000.1684285851
2	68534	60.18	1000.3073175849
2	68535	60.19	1000.4462065848
2	68536	60.2	1000.5850955847
2	68539	60.21	1000.7239845845
2	68540	60.22	1000.8628735844
2	68559	60.23	1001.0017625843
2	68560	60.24	1001.1406515841
2	68561	60.25	1001.279540584
2	68580	60.26	1001.4184295839
2	68581	60.27	1001.5573185837
2	68582	60.28	1001.6962075836
2	68583	60.29	1001.8350965835
2	68584	60.3	1001.9739855834
2	68587	60.31	1002.1128745832
2	68588	60.32	1002.2517635831
2	68607	60.33	1002.390652583
2	68608	60.34	1002.5295415828
2	68609	60.35	1002.6684305827
2	68628	60.36	1002.8073195826
2	68629	60.37	1002.9462085824
2	68630	60.38	1003.0850975823
2	68631	60.39	1003.2239865822
2	68632	60.4	1003.3628755821
2	68635	60.41	1003.5017645819
2	68636	60.42	1003.6406535818
2	68655	60.43	1003.7795425817
2	68656	60.44	1003.9184315816
2	68657	60.45	1004.0573205814
2	68676	60.46	1004.1962095813
2	68677	60.47	1004.3350985812
2	68678	60.48	1004.473987581
2	68679	60.49	1004.6128765809
2	68680	60.5	1004.7517655808
2	68683	60.51	1004.8906545807
2	68684	60.52	1005.0295435805
2	68703	60.53	1005.1684325804
2	68704	60.54	1005.3073215803
2	68705	60.55	1005.4462105802
2	68724	60.56	1005.58509958
2	68725	60.57	1005.7239885799
2	68726	60.58	1005.8628775798
2	68727	60.59	1006.0017665797
2	68728	60.6	1006.1406555795
2	68731	60.61	1006.2795445794
2	68732	60.62	1006.4184335793
2	68751	60.63	1006.5573225792
2	68752	60.64	1006.696211579
2	68753	60.65	1006.8351005789
2	68772	60.66	1006.9739895788
2	68773	60.67	1007.1128785787
2	68774	60.68	1007.2517675786
2	68775	60.69	1007.3906565784
2	68776	60.7	1007.5295455783
2	68779	60.71	1007.6684345782
2	68780	60.72	1007.8073235781
2	68799	60.73	1007.9462125779
2	68800	60.74	1008.0851015778
2	68801	60.75	1008.2239905777
2	68820	60.76	1008.3628795776
2	68821	60.77	1008.5017685775
2	68822	60.78	1008.6406575773
2	68823	60.79	1008.7795465772
2	68824	60.8	1008.9184355771
2	68827	60.81	1009.057324577
2	68828	60.82	1009.1962135769
2	68847	60.83	1009.3351025767
2	68848	60.84	1009.4739915766
2	68849	60.85	1009.6128805765
2	68868	60.86	1009.7517695764
2	68869	60.87	1009.8906585763
2	68870	60.88	1010.0295475761
2	68871	60.89	1010.168436576
2	68872	60.9	1010.3073255759
2	68875	60.91	1010.4462145758
2	68876	60.92	1010.5851035757
2	68895	60.93	1010.7239925755
2	68896	60.94	1010.8628815754
2	68897	60.95	1011.0017705753
2	68916	60.96	1011.1406595752
2	68917	60.97	1011.2795485751
2	68918	60.98	1011.418437575
2	68919	60.99	1011.5573265748
2	68922	61	1011.6962155747
2	68925	61.01	1011.8351045746
2	68926	61.02	1011.9739935745
2	68945	61.03	1012.1128825744
2	68946	61.04	1012.2517715743
2	68947	61.05	1012.3906605741
2	68966	61.06	1012.529549574
2	68967	61.07	1012.6684385739
2	68968	61.08	1012.8073275738
2	68969	61.09	1012.9462165737
2	68970	61.1	1013.0851055736
2	68973	61.11	1013.2239945734
2	68974	61.12	1013.3628835733
2	68993	61.13	1013.5017725732
2	68994	61.14	1013.6406615731
2	68995	61.15	1013.779550573
2	69014	61.16	1013.9184395729
2	69015	61.17	1014.0573285728
2	69016	61.18	1014.1962175726
2	69017	61.19	1014.3351065725
2	69018	61.2	1014.4739955724
2	69021	61.21	1014.6128845723
2	69022	61.22	1014.7517735722
2	69041	61.23	1014.8906625721
2	69042	61.24	1015.029551572
2	69043	61.25	1015.1684405719
2	69062	61.26	1015.3073295717
2	69063	61.27	1015.4462185716
2	69064	61.28	1015.5851075715
2	69065	61.29	1015.7239965714
2	69066	61.3	1015.8628855713
2	69069	61.31	1016.0017745712
2	69070	61.32	1016.1406660221
2	69081	61.33	1016.2795647778
2	69082	61.34	1016.4184755972
2	69083	61.35	1016.5574031456
2	69084	61.36	1016.6963519969
2	69085	61.37	1016.8353266355
2	69086	61.38	1016.9743314577
2	69087	61.39	1017.1133707735
2	69088	61.4	1017.2524488086
2	69090	61.41	1017.3915697058
2	69091	61.42	1017.5307375265
2	69102	61.43	1017.6699562528
2	69103	61.44	1017.8092297883
2	69104	61.45	1017.9485619604
2	69105	61.46	1018.0879565212
2	69106	61.47	1018.2274171495
2	69107	61.48	1018.3669474518
2	69108	61.49	1018.5065509638
2	69109	61.5	1018.646231152
2	69111	61.51	1018.785991415
2	69112	61.52	1018.9258350845
2	69123	61.53	1019.0657654273
2	69124	61.54	1019.2057856456
2	69125	61.55	1019.3458988793
2	69126	61.56	1019.4861082064
2	69127	61.57	1019.6264166448
2	69128	61.58	1019.766827153
2	69129	61.59	1019.9073426316
2	69130	61.6	1020.0479659244
2	69132	61.61	1020.1886998192
2	69133	61.62	1020.3295470495
2	69144	61.63	1020.4705102949
2	69145	61.64	1020.6115921824
2	69146	61.65	1020.7527952879
2	69147	61.66	1020.8941221364
2	69148	61.67	1021.0355752036
2	69149	61.68	1021.1771569165
2	69150	61.69	1021.3188696547
2	69151	61.7	1021.4607157509
2	69153	61.71	1021.6026974923
2	69154	61.72	1021.7448171211
2	69165	61.73	1021.8870768356
2	69166	61.74	1022.029478791
2	69167	61.75	1022.1720251002
2	69168	61.76	1022.3147178347
2	69169	61.77	1022.4575590254
2	69170	61.78	1022.6005506634
2	69171	61.79	1022.7436947006
2	69172	61.8	1022.8869930508
2	69174	61.81	1023.0304475902
2	69175	61.82	1023.1740601582
2	69186	61.83	1023.3178325583
2	69187	61.84	1023.4617665583
2	69188	61.85	1023.6058638917
2	69189	61.86	1023.7501262577
2	69190	61.87	1023.8945553225
2	69191	61.88	1024.0391527193
2	69192	61.89	1024.1839200495
2	69193	61.9	1024.328858883
2	69195	61.91	1024.473970759
2	69196	61.92	1024.6192571865
2	69207	61.93	1024.7647196448

