version 3
run OvertakeNoGui-365-20241104-10:09:02-93427
attr configname OvertakeNoGui
attr datetime 20241104-10:09:02
attr datetimef 20241104-100902
attr experiment OvertakeNoGui
attr inifile omnetpp.ini
attr iterationvars "$leaderHeadway=1.2, $leaderSpeed=50, $controller=0, $pCSpeed=62, $pDeltaC=486"
attr iterationvarsd leaderHeadway=1.2/leaderSpeed=50/controller=0/pCSpeed=62/pDeltaC=486
attr iterationvarsf leaderHeadway=1.2,leaderSpeed=50,controller=0,pCSpeed=62,pDeltaC=486-
attr measurement "$leaderHeadway=1.2, $leaderSpeed=50, $controller=0, $pCSpeed=62, $pDeltaC=486"
attr network Overtake
attr processid 93427
attr repetition 0
attr replication #0
attr resultdir results
attr runnumber 365
attr seedset 0
itervar controller 0
itervar leaderHeadway 1.2
itervar leaderSpeed 50
itervar pCSpeed 62
itervar pDeltaC 486
config image-path ../../../../veins/images;../../images
config *.manager.command "\"sumo\""
config *.manager.ignoreGuiCommands true
config *.node[*].scenario_type "\"OvertakeScenario\""
config output-vector-file results/OvertakeNoGui_62_486_0.vec
config output-scalar-file results/OvertakeNoGui_62_486_0.sca
config cmdenv-express-mode false
config cmdenv-autoflush true
config cmdenv-status-frequency 10s
config num-rngs 6
config cmdenv-output-file log.txt
config cmdenv-redirect-output true
config network Overtake
config debug-on-errors true
config print-undisposed true
config *.playgroundSizeX 65000m
config *.playgroundSizeY 25000m
config *.playgroundSizeZ 50m
config sim-time-limit "360 s"
config *.annotations.draw false
config *.obstacles.debug false
config *.world.useTorus false
config *.world.use2D false
config *.manager.updateInterval 0.01s
config *.manager.host "\"localhost\""
config *.manager.moduleType "\"vtypeauto=org.car2x.plexe.PlatoonCar vtypehuman=0\""
config *.manager.moduleName "\"vtypeauto=node vtypehuman=0\""
config *.manager.moduleDisplayString "\"\""
config *.manager.autoShutdown true
config *.manager.margin 25
config *.manager.order -1
config *.connectionManager.sendDirect true
config *.connectionManager.maxInterfDist 2600m
config *.connectionManager.drawMaxIntfDist false
config *.**.nic.mac1609_4.useServiceChannel false
config *.**.nic.mac1609_4.txPower 100mW
config *.**.nic.mac1609_4.bitrate 6Mbps
config *.**.nic.mac1609_4.useAcks true
config *.**.nic.mac1609_4.ackErrorRate 0.0
config *.**.nic.mac1609_4.frameErrorRate 0.0
config *.**.nic.phy80211p.minPowerLevel -94dBm
config *.**.nic.phy80211p.maxTXPower 100mW
config *.**.nic.phy80211p.useNoiseFloor true
config *.**.nic.phy80211p.noiseFloor -95dBm
config *.**.nic.phy80211p.decider "xmldoc(\"config.xml\")"
config *.**.nic.phy80211p.analogueModels "xmldoc(\"config.xml\")"
config *.**.nic.phy80211p.usePropagationDelay true
config *.node[*].mobility.x 0
config *.node[*].mobility.y 0
config *.node[*].mobility.z 1.895
config *.shockwave[*].mobility.x 0
config *.shockwave[*].mobility.y 0
config *.shockwave[*].mobility.z 1.895
config seed-set 0
config **.seed 0
config *.node[*].prot.rng-0 2
config *.node[*].appl.rng-0 3
config *.node[*].scenario.rng-0 4
config *.manager.configFile "\"./sumocfg/overtake.sumo.cfg\""
config *.manager.launchConfig "xmldoc(\"./sumocfg/overtake.launchd.xml\")"
config *.node[*].helper_type "\"PositionHelper\""
config *.node[*].scenario.caccC1 0.5
config *.node[*].scenario.caccXi 1
config *.node[*].scenario.caccOmegaN "0.2 Hz"
config *.node[*].scenario.caccSpacing "5 m"
config *.node[*].scenario.engineTau "0.5 s"
config *.node[*].scenario.ploegH "0.5 s"
config *.node[*].scenario.ploegKp 0.2
config *.node[*].scenario.ploegKd 0.7
config *.node[*].scenario.useRealisticEngine false
config *.node[*].scenario.targetController "\"CACC\""
config *.node[*].scenario.accHeadway "0.1 s"
config *.node[*].scenario.leaderHeadway "1.2 s"
config *.node[*].scenario.leaderSpeed "50 kmph"
config *.node[*].appl_type "\"OvertakeApp\""
config *.node[*].appl.*.scalar-recording true
config *.node[*].appl.*.vector-recording true
config *.node[*].appl.overtakeManeuver "\"OvertakeManeuver\""
config *.node[*].protocol_type "\"SimplePlatooningBeaconing\""
config *.node[*].prot.*.scalar-recording true
config *.node[*].prot.*.vector-recording true
config *.node[*].prot.beaconingInterval "0.1 s"
config *.node[*].prot.priority 4
config *.node[*].prot.packetSize 200
config *.node[*].prot.useControllerAcceleration true
config **.traffic_type "\"OvertakeTrafficManager\""
config **.traffic.platoonInsertTime "0.1 s"
config **.traffic.platooningVType "\"vtypeauto\""
config **.numericController 0
config **.traffic.platoonInsertDistance 5m
config **.traffic.platoonInsertHeadway 0s
config **.traffic.platoonLeaderHeadway 1.2s
config **.traffic.platoonASpeed 50kmph
config **.traffic.platoonBSpeed 100kmph
config **.traffic.platoonCSpeed 62kmph
config **.traffic.platoonSizeA 2
config **.traffic.platoonSizeB 1
config **.traffic.platoonSizeC 1
config **.traffic.initialPositionDeltaA 150
config **.traffic.initialPositionDeltaB 50
config **.traffic.initialPositionDeltaC 486
config **.traffic.controller "\"CACC\""
config **.scalar-recording true
config **.vector-recording true

vector 0 Overtake.node[0].mobility posx ETV
vector 1 Overtake.node[0].mobility posy ETV
vector 2 Overtake.node[1].mobility posx ETV
vector 3 Overtake.node[1].mobility posy ETV
vector 4 Overtake.node[2].mobility posx ETV
vector 5 Overtake.node[2].mobility posy ETV
vector 6 Overtake.node[3].mobility posx ETV
vector 7 Overtake.node[3].mobility posy ETV
vector 8 Overtake.node[0].mobility speed ETV
vector 9 Overtake.node[1].mobility speed ETV
vector 10 Overtake.node[2].mobility speed ETV
vector 11 Overtake.node[3].mobility speed ETV
vector 12 Overtake.node[0].mobility acceleration ETV
vector 13 Overtake.node[0].mobility co2emission ETV
vector 14 Overtake.node[1].mobility acceleration ETV
vector 15 Overtake.node[1].mobility co2emission ETV
vector 16 Overtake.node[2].mobility acceleration ETV
vector 17 Overtake.node[2].mobility co2emission ETV
vector 18 Overtake.node[3].mobility acceleration ETV
vector 19 Overtake.node[3].mobility co2emission ETV
vector 20 Overtake.node[0].appl distance ETV
vector 21 Overtake.node[0].appl relativeSpeed ETV
vector 22 Overtake.node[0].appl nodeId ETV
vector 23 Overtake.node[0].appl acceleration ETV
vector 24 Overtake.node[0].appl controllerAcceleration ETV
vector 25 Overtake.node[0].appl speed ETV
vector 26 Overtake.node[0].appl posx ETV
vector 27 Overtake.node[0].appl posy ETV
vector 28 Overtake.node[1].appl distance ETV
vector 29 Overtake.node[1].appl relativeSpeed ETV
vector 30 Overtake.node[1].appl nodeId ETV
vector 31 Overtake.node[1].appl acceleration ETV
vector 32 Overtake.node[1].appl controllerAcceleration ETV
vector 33 Overtake.node[1].appl speed ETV
vector 34 Overtake.node[1].appl posx ETV
vector 35 Overtake.node[1].appl posy ETV
vector 36 Overtake.node[2].appl distance ETV
vector 37 Overtake.node[2].appl relativeSpeed ETV
vector 38 Overtake.node[2].appl nodeId ETV
vector 39 Overtake.node[2].appl acceleration ETV
vector 40 Overtake.node[2].appl controllerAcceleration ETV
vector 41 Overtake.node[2].appl speed ETV
vector 42 Overtake.node[2].appl posx ETV
vector 43 Overtake.node[2].appl posy ETV
vector 44 Overtake.node[3].appl distance ETV
vector 45 Overtake.node[3].appl relativeSpeed ETV
vector 46 Overtake.node[3].appl nodeId ETV
vector 47 Overtake.node[3].appl acceleration ETV
vector 48 Overtake.node[3].appl controllerAcceleration ETV
vector 49 Overtake.node[3].appl speed ETV
vector 50 Overtake.node[3].appl posx ETV
vector 51 Overtake.node[3].appl posy ETV
vector 52 Overtake.node[1].prot leaderDelay ETV
vector 53 Overtake.node[1].prot leaderDelayId ETV
vector 54 Overtake.node[1].prot frontDelay ETV
vector 55 Overtake.node[1].prot frontDelayId ETV
vector 56 Overtake.node[0].prot nodeId ETV
vector 57 Overtake.node[0].prot busyTime ETV
vector 58 Overtake.node[0].prot collisions ETV
vector 59 Overtake.node[1].prot nodeId ETV
vector 60 Overtake.node[1].prot busyTime ETV
vector 61 Overtake.node[1].prot collisions ETV
vector 62 Overtake.node[2].prot nodeId ETV
vector 63 Overtake.node[2].prot busyTime ETV
vector 64 Overtake.node[2].prot collisions ETV
vector 65 Overtake.node[3].prot nodeId ETV
vector 66 Overtake.node[3].prot busyTime ETV
vector 67 Overtake.node[3].prot collisions ETV
48	26	0.21	0.00218518
48	176	0.31	0.00213419
48	326	0.41	0.00205408
48	476	0.51	0.00195152
48	626	0.61	0.00183238
48	776	0.71	0.00170178
48	926	0.81	0.00156412
48	1076	0.91	0.00142314
48	1230	1.01	0.00128196
48	1381	1.11	0.00114315
48	1532	1.21	0.00100877
48	1683	1.31	0.000880447
48	2046	1.41	0.000759381
48	2196	1.51	0.000646445
48	2346	1.61	0.000542204
48	2496	1.71	0.000446965
48	2646	1.81	0.000360819
48	2796	1.91	0.000283678
48	2950	2.01	0.000215307
48	3100	2.11	0.000155357
48	3250	2.21	0.000103391
48	3400	2.31	5.89069e-05
48	3763	2.41	2.13575e-05
48	3914	2.51	-9.82919e-06
48	4064	2.61	-3.52368e-05
48	4214	2.71	-5.54479e-05
48	4364	2.81	-7.10335e-05
48	4514	2.91	-8.25451e-05
48	4668	3.01	-9.05081e-05
48	4818	3.11	-9.54172e-05
48	4968	3.21	-9.7733e-05
48	5118	3.31	-9.78798e-05
48	5269	3.41	-9.62447e-05
48	5676	3.51	-9.31771e-05
48	5826	3.61	-8.89894e-05
48	5976	3.71	-8.39579e-05
48	6126	3.81	-7.83245e-05
48	6276	3.91	-7.22983e-05
48	6430	4.01	-6.6058e-05
48	6580	4.11	-5.9754e-05
48	6730	4.21	-5.35107e-05
48	6880	4.31	-4.74294e-05
48	7030	4.41	-4.15898e-05
48	7393	4.51	-3.60534e-05
48	7544	4.61	-3.0865e-05
48	7694	4.71	-2.60551e-05
48	7844	4.81	-2.16419e-05
48	7994	4.91	-1.76335e-05
48	8148	5.01	-1.40289e-05
48	8298	5.11	-1.08202e-05
48	8448	5.21	-7.99392e-06
48	8598	5.31	-5.532e-06
48	8748	5.41	-3.41315e-06
48	8899	5.51	-1.61374e-06
48	9262	5.61	-1.08654e-07
48	9412	5.71	1.12799e-06
48	9562	5.81	2.12224e-06
48	9712	5.91	2.89981e-06
48	9866	6.01	3.48567e-06
48	10016	6.11	3.90376e-06
48	10166	6.21	4.17673e-06
48	10316	6.31	4.32574e-06
48	10466	6.41	4.3704e-06
48	10616	6.51	4.32865e-06
48	11023	6.61	4.21676e-06
48	11174	6.71	4.04934e-06
48	11324	6.81	3.83937e-06
48	11474	6.91	3.59826e-06
48	11628	7.01	3.33592e-06
48	11778	7.11	3.06089e-06
48	11928	7.21	2.78036e-06
48	12078	7.31	2.50036e-06
48	12228	7.41	2.22582e-06
48	12378	7.51	1.96068e-06
48	12529	7.61	1.708e-06
48	12892	7.71	1.47009e-06
48	13042	7.81	1.24855e-06
48	13192	7.91	1.04441e-06
48	13346	8.01	8.58219e-07
48	13496	8.11	6.90082e-07
48	13646	8.21	5.39774e-07
48	13796	8.31	4.06787e-07
48	13946	8.41	2.90396e-07
48	14096	8.51	1.89707e-07
48	14246	8.61	1.03704e-07
48	14609	8.71	3.12909e-08
48	14760	8.81	-2.86736e-08
48	14910	8.91	-7.73515e-08
48	15064	9.01	-1.15897e-07
48	15214	9.11	-1.45439e-07
48	15364	9.21	-1.67065e-07
48	15514	9.31	-1.81809e-07
48	15664	9.41	-1.90644e-07
48	15814	9.51	-1.94472e-07
48	15964	9.61	-1.94125e-07
48	16115	9.71	-1.90358e-07
48	16522	9.81	-1.83853e-07
48	16672	9.91	-1.75219e-07
48	16826	10.01	-1.64994e-07
48	16976	10.11	-1.53647e-07
48	17126	10.21	-1.41582e-07
48	17276	10.31	-1.29146e-07
48	17426	10.41	-1.16627e-07
48	17576	10.51	-1.04266e-07
48	17726	10.61	-9.22547e-08
48	17876	10.71	-8.07471e-08
48	18239	10.81	-6.98584e-08
48	18390	10.91	-5.96732e-08
48	18544	11.01	-5.02471e-08
48	18694	11.11	-4.16133e-08
48	18844	11.21	-3.37845e-08
48	18994	11.31	-2.67558e-08
48	19144	11.41	-2.05102e-08
48	19294	11.51	-1.50187e-08
48	19444	11.61	-1.02442e-08
48	19594	11.71	-6.14406e-09
48	19745	11.81	-2.67022e-09
48	20108	11.91	2.27374e-10
48	20262	12.01	2.60059e-09
48	20412	12.11	4.50058e-09
48	20562	12.21	5.97851e-09
48	20712	12.31	7.08376e-09
48	20862	12.41	7.86322e-09
48	21012	12.51	8.36167e-09
48	21162	12.61	8.62066e-09
48	21312	12.71	8.67857e-09
48	21462	12.81	8.57057e-09
48	21845	12.91	8.32792e-09
48	22000	13.01	7.97975e-09
48	22150	13.11	7.55094e-09
48	22300	13.21	7.06351e-09
48	22450	13.31	6.53699e-09
48	22600	13.41	5.98774e-09
48	22750	13.51	5.42997e-09
48	22900	13.61	4.87468e-09
48	23050	13.71	4.33182e-09
48	23200	13.81	3.80886e-09
48	23351	13.91	3.31148e-09
48	23738	14.01	2.8443e-09
48	23888	14.11	2.40981e-09
48	24038	14.21	2.01013e-09
48	24188	14.31	1.64633e-09
48	24338	14.41	1.31806e-09
48	24488	14.51	1.02531e-09
48	24638	14.61	7.66676e-10
48	24788	14.71	5.40723e-10
48	24938	14.81	3.46034e-10
48	25088	14.91	1.79767e-10
48	25242	15.01	4.01457e-11
48	25392	15.11	-7.49623e-11
48	25542	15.21	-1.68043e-10
48	25692	15.31	-2.41585e-10
48	25842	15.41	-2.97362e-10
48	25992	15.51	-3.37863e-10
48	26142	15.61	-3.64864e-10
48	26292	15.71	-3.80851e-10
48	26442	15.81	-3.86891e-10
48	26592	15.91	-3.84759e-10
48	26746	16.01	-3.76232e-10
48	26896	16.11	-3.62377e-10
48	27046	16.21	-3.44613e-10
48	27196	16.31	-3.24007e-10
48	27346	16.41	-3.00915e-10
48	27496	16.51	-2.76756e-10
48	27646	16.61	-2.52243e-10
48	27796	16.71	-2.27374e-10
48	27946	16.81	-2.0286e-10
48	28096	16.91	-1.79057e-10
48	28250	17.01	-1.56319e-10
48	28400	17.11	-1.35003e-10
48	28550	17.21	-1.15108e-10
48	28700	17.31	-9.66338e-11
48	28850	17.41	-7.99361e-11
48	29000	17.51	-6.46594e-11
48	29150	17.61	-5.08038e-11
48	29300	17.71	-3.83693e-11
48	29450	17.81	-2.73559e-11
48	29600	17.91	-1.77636e-11
48	29754	18.01	-9.59233e-12
48	29904	18.11	-2.84217e-12
48	30054	18.21	2.84217e-12
48	30204	18.31	7.4607e-12
48	30354	18.41	1.13687e-11
48	30504	18.51	1.42109e-11
48	30654	18.61	1.63425e-11
48	30804	18.71	1.77636e-11
48	30954	18.81	1.84741e-11
48	31104	18.91	1.88294e-11
48	31258	19.01	1.88294e-11
48	31408	19.11	1.88294e-11
48	31558	19.21	1.81188e-11
48	31708	19.31	1.7053e-11
48	31858	19.41	1.63425e-11
48	32008	19.51	1.52767e-11
48	32158	19.61	1.45661e-11
48	32308	19.71	1.35003e-11
48	32458	19.81	1.27898e-11
48	32608	19.91	1.1724e-11
48	32762	20.01	1.10134e-11
48	32912	20.11	9.9476e-12
48	33062	20.21	9.23706e-12
48	33212	20.31	8.17124e-12
48	33362	20.41	7.4607e-12
48	33512	20.51	6.39488e-12
48	33662	20.61	5.68434e-12
48	33812	20.71	4.61853e-12
48	33962	20.81	3.90799e-12
48	34112	20.91	2.84217e-12
48	34266	21.01	2.13163e-12
48	34416	21.11	1.06581e-12
48	34566	21.21	3.55271e-13
48	34716	21.31	-7.10543e-13
48	34866	21.41	-1.42109e-12
48	35016	21.51	-2.13163e-12
48	35166	21.61	-2.84217e-12
48	35316	21.71	-3.19744e-12
48	35466	21.81	-3.90799e-12
48	35616	21.91	-4.26326e-12
48	35770	22.01	-4.61853e-12
48	35920	22.11	-5.32907e-12
48	36070	22.21	-5.68434e-12
48	36220	22.31	-5.68434e-12
48	36370	22.41	-6.03961e-12
48	36520	22.51	-6.39488e-12
48	36670	22.61	-6.75016e-12
48	36820	22.71	-6.75016e-12
48	36970	22.81	-7.10543e-12
48	37120	22.91	-7.10543e-12
48	37274	23.01	-7.4607e-12
48	37424	23.11	-7.4607e-12
48	37574	23.21	-7.81597e-12
48	37724	23.31	-7.81597e-12
48	37874	23.41	-7.81597e-12
48	38024	23.51	-7.81597e-12
48	38174	23.61	-8.17124e-12
48	38324	23.71	-8.17124e-12
48	38474	23.81	-8.17124e-12
48	38624	23.91	-8.17124e-12
48	38778	24.01	-8.17124e-12
48	38928	24.11	-8.52651e-12
48	39078	24.21	-8.52651e-12
48	39228	24.31	-8.52651e-12
48	39378	24.41	-8.52651e-12
48	39528	24.51	-8.52651e-12
48	39678	24.61	-8.52651e-12
48	39828	24.71	-8.52651e-12
48	39978	24.81	-8.52651e-12
48	40128	24.91	-8.52651e-12
48	40282	25.01	-8.52651e-12
48	40432	25.11	-8.88178e-12
48	40582	25.21	-8.88178e-12
48	40732	25.31	-8.88178e-12
48	40882	25.41	-8.88178e-12
48	41032	25.51	-8.88178e-12
48	41182	25.61	-8.88178e-12
48	41333	25.71	-8.88178e-12
48	41483	25.81	-8.88178e-12
48	41633	25.91	-8.88178e-12
48	41787	26.01	-8.88178e-12
48	41937	26.11	-8.88178e-12
48	42087	26.21	-8.88178e-12
48	42237	26.31	-8.88178e-12
48	42387	26.41	-8.88178e-12
48	42537	26.51	-8.88178e-12
48	42687	26.61	-8.88178e-12
48	42837	26.71	-8.88178e-12
48	42987	26.81	-8.88178e-12
48	43137	26.91	-8.88178e-12
48	43291	27.01	-8.88178e-12
48	43441	27.11	-8.88178e-12
48	43591	27.21	-8.88178e-12
48	43741	27.31	-8.88178e-12
48	43891	27.41	-8.88178e-12
48	44041	27.51	-8.88178e-12
48	44191	27.61	-8.88178e-12
48	44341	27.71	-8.88178e-12
48	44491	27.81	-8.88178e-12
48	44641	27.91	-8.88178e-12
48	44795	28.01	-8.88178e-12
48	44945	28.11	-8.88178e-12
48	45095	28.21	-8.88178e-12
48	45245	28.31	-8.88178e-12
48	45395	28.41	-8.88178e-12
48	45545	28.51	-8.88178e-12
48	45695	28.61	-8.88178e-12
48	45845	28.71	-8.88178e-12
48	45995	28.81	-8.88178e-12
48	46145	28.91	-8.88178e-12
48	46299	29.01	-8.88178e-12
48	46449	29.11	-8.88178e-12
48	46599	29.21	-8.88178e-12
48	46749	29.31	-8.88178e-12
48	46899	29.41	-8.88178e-12
48	47049	29.51	-8.88178e-12
48	47199	29.61	-8.88178e-12
48	47349	29.71	-8.88178e-12
48	47499	29.81	-8.88178e-12
48	47649	29.91	-8.88178e-12
47	26	0.21	0.000358191
47	176	0.31	0.000681704
47	326	0.41	0.00093487
47	476	0.51	0.00112579
47	626	0.61	0.00126221
47	776	0.71	0.00135149
47	926	0.81	0.00140049
47	1076	0.91	0.00141557
47	1230	1.01	0.00140255
47	1381	1.11	0.00136671
47	1532	1.21	0.0013128
47	1683	1.31	0.00124502
47	2046	1.41	0.0011671
47	2196	1.51	0.00108223
47	2346	1.61	0.000993208
47	2496	1.71	0.000902362
47	2646	1.81	0.000811651
47	2796	1.91	0.000722679
47	2950	2.01	0.000636729
47	3100	2.11	0.0005548
47	3250	2.21	0.000477639
47	3400	2.31	0.000405773
47	3763	2.41	0.00033954
47	3914	2.51	0.000279116
47	4064	2.61	0.000224541
47	4214	2.71	0.000175743
47	4364	2.81	0.00013256
47	4514	2.91	9.47571e-05
47	4668	3.01	6.2046e-05
47	4818	3.11	3.40986e-05
47	4968	3.21	1.05605e-05
47	5118	3.31	-8.93844e-06
47	5269	3.41	-2.4774e-05
47	5676	3.51	-3.73203e-05
47	5826	3.61	-4.69433e-05
47	5976	3.71	-5.39956e-05
47	6126	3.81	-5.88124e-05
47	6276	3.91	-6.1709e-05
47	6430	4.01	-6.29785e-05
47	6580	4.11	-6.28903e-05
47	6730	4.21	-6.169e-05
47	6880	4.31	-5.95988e-05
47	7030	4.41	-5.68144e-05
47	7393	4.51	-5.35112e-05
47	7544	4.61	-4.98416e-05
47	7694	4.71	-4.59373e-05
47	7844	4.81	-4.19105e-05
47	7994	4.91	-3.78555e-05
47	8148	5.01	-3.38499e-05
47	8298	5.11	-2.99569e-05
47	8448	5.21	-2.62259e-05
47	8598	5.31	-2.26948e-05
47	8748	5.41	-1.93911e-05
47	8899	5.51	-1.6333e-05
47	9262	5.61	-1.35314e-05
47	9412	5.71	-1.09904e-05
47	9562	5.81	-8.70882e-06
47	9712	5.91	-6.6809e-06
47	9866	6.01	-4.89747e-06
47	10016	6.11	-3.3466e-06
47	10166	6.21	-2.01432e-06
47	10316	6.31	-8.85256e-07
47	10466	6.41	5.68459e-08
47	10616	6.51	8.28678e-07
47	11023	6.61	1.44699e-06
47	11174	6.71	1.92826e-06
47	11324	6.81	2.28849e-06
47	11474	6.91	2.54296e-06
47	11628	7.01	2.7061e-06
47	11778	7.11	2.79139e-06
47	11928	7.21	2.8113e-06
47	12078	7.31	2.77721e-06
47	12228	7.41	2.69943e-06
47	12378	7.51	2.58721e-06
47	12529	7.61	2.44874e-06
47	12892	7.71	2.29123e-06
47	13042	7.81	2.12092e-06
47	13192	7.91	1.94317e-06
47	13346	8.01	1.7625e-06
47	13496	8.11	1.58267e-06
47	13646	8.21	1.40677e-06
47	13796	8.31	1.23723e-06
47	13946	8.41	1.07596e-06
47	14096	8.51	9.24364e-07
47	14246	8.61	7.83424e-07
47	14609	8.71	6.53753e-07
47	14760	8.81	5.35652e-07
47	14910	8.91	4.2916e-07
47	15064	9.01	3.34103e-07
47	15214	9.11	2.5013e-07
47	15364	9.21	1.76757e-07
47	15514	9.31	1.13395e-07
47	15664	9.41	5.93825e-08
47	15814	9.51	1.40084e-08
47	15964	9.61	-2.34657e-08
47	16115	9.71	-5.3787e-08
47	16522	9.81	-7.76954e-08
47	16672	9.91	-9.59155e-08
47	16826	10.01	-1.09142e-07
47	16976	10.11	-1.18035e-07
47	17126	10.21	-1.23212e-07
47	17276	10.31	-1.2525e-07
47	17426	10.41	-1.24675e-07
47	17576	10.51	-1.21968e-07
47	17726	10.61	-1.17559e-07
47	17876	10.71	-1.11834e-07
47	18239	10.81	-1.05132e-07
47	18390	10.91	-9.77476e-08
47	18544	11.01	-8.99373e-08
47	18694	11.11	-8.19171e-08
47	18844	11.21	-7.38677e-08
47	18994	11.31	-6.59401e-08
47	19144	11.41	-5.82538e-08
47	19294	11.51	-5.09036e-08
47	19444	11.61	-4.39606e-08
47	19594	11.71	-3.74765e-08
47	19745	11.81	-3.14852e-08
47	20108	11.91	-2.60055e-08
47	20262	12.01	-2.10438e-08
47	20412	12.11	-1.65958e-08
47	20562	12.21	-1.26498e-08
47	20712	12.31	-9.18554e-09
47	20862	12.41	-6.17888e-09
47	21012	12.51	-3.60174e-09
47	21162	12.61	-1.42322e-09
47	21312	12.71	3.90088e-10
47	21462	12.81	1.8705e-09
47	21845	12.91	3.05107e-09
47	22000	13.01	3.96518e-09
47	22150	13.11	4.64375e-09
47	22300	13.21	5.11768e-09
47	22450	13.31	5.41434e-09
47	22600	13.41	5.56071e-09
47	22750	13.51	5.58096e-09
47	22900	13.61	5.49747e-09
47	23050	13.71	5.33085e-09
47	23200	13.81	5.09743e-09
47	23351	13.91	4.81464e-09
47	23738	14.01	4.49667e-09
47	23888	14.11	4.15525e-09
47	24038	14.21	3.80034e-09
47	24188	14.31	3.44151e-09
47	24338	14.41	3.08518e-09
47	24488	14.51	2.73772e-09
47	24638	14.61	2.40306e-09
47	24788	14.71	2.08544e-09
47	24938	14.81	1.78773e-09
47	25088	14.91	1.51132e-09
47	25242	15.01	1.25766e-09
47	25392	15.11	1.02673e-09
47	25542	15.21	8.18901e-10
47	25692	15.31	6.33804e-10
47	25842	15.41	4.70735e-10
47	25992	15.51	3.28271e-10
47	26142	15.61	2.05702e-10
47	26292	15.71	1.00897e-10
47	26442	15.81	1.35003e-11
47	26592	15.91	-5.82645e-11
47	26746	16.01	-1.16174e-10
47	26896	16.11	-1.61648e-10
47	27046	16.21	-1.95755e-10
47	27196	16.31	-2.20624e-10
47	27346	16.41	-2.36966e-10
47	27496	16.51	-2.45848e-10
47	27646	16.61	-2.4869e-10
47	27796	16.71	-2.46914e-10
47	27946	16.81	-2.40874e-10
47	28096	16.91	-2.31282e-10
47	28250	17.01	-2.19913e-10
47	28400	17.11	-2.05702e-10
47	28550	17.21	-1.91491e-10
47	28700	17.31	-1.7657e-10
47	28850	17.41	-1.59872e-10
47	29000	17.51	-1.44595e-10
47	29150	17.61	-1.30385e-10
47	29300	17.71	-1.16174e-10
47	29450	17.81	-1.01963e-10
47	29600	17.91	-8.7752e-11
47	29754	18.01	-7.35412e-11
47	29904	18.11	-6.21725e-11
47	30054	18.21	-5.15143e-11
47	30204	18.31	-4.08562e-11
47	30354	18.41	-3.16192e-11
47	30504	18.51	-2.45137e-11
47	30654	18.61	-1.74083e-11
47	30804	18.71	-1.03029e-11
47	30954	18.81	-6.03961e-12
47	31104	18.91	-2.4869e-12
47	31258	19.01	1.06581e-12
47	31408	19.11	4.61853e-12
47	31558	19.21	8.17124e-12
47	31708	19.31	8.88178e-12
47	31858	19.41	8.88178e-12
47	32008	19.51	8.88178e-12
47	32158	19.61	8.88178e-12
47	32308	19.71	8.88178e-12
47	32458	19.81	8.88178e-12
47	32608	19.91	8.88178e-12
47	32762	20.01	8.88178e-12
47	32912	20.11	8.88178e-12
47	33062	20.21	8.88178e-12
47	33212	20.31	8.88178e-12
47	33362	20.41	8.88178e-12
47	33512	20.51	8.88178e-12
47	33662	20.61	8.88178e-12
47	33812	20.71	8.88178e-12
47	33962	20.81	8.88178e-12
47	34112	20.91	8.88178e-12
47	34266	21.01	8.88178e-12
47	34416	21.11	8.88178e-12
47	34566	21.21	8.88178e-12
47	34716	21.31	8.17124e-12
47	34866	21.41	7.4607e-12
47	35016	21.51	6.75016e-12
47	35166	21.61	6.03961e-12
47	35316	21.71	5.68434e-12
47	35466	21.81	4.9738e-12
47	35616	21.91	4.61853e-12
47	35770	22.01	4.26326e-12
47	35920	22.11	3.55271e-12
47	36070	22.21	3.19744e-12
47	36220	22.31	3.19744e-12
47	36370	22.41	2.84217e-12
47	36520	22.51	2.4869e-12
47	36670	22.61	2.13163e-12
47	36820	22.71	2.13163e-12
47	36970	22.81	1.77636e-12
47	37120	22.91	1.77636e-12
47	37274	23.01	1.42109e-12
47	37424	23.11	1.42109e-12
47	37574	23.21	1.06581e-12
47	37724	23.31	1.06581e-12
47	37874	23.41	1.06581e-12
47	38024	23.51	1.06581e-12
47	38174	23.61	7.10543e-13
47	38324	23.71	7.10543e-13
47	38474	23.81	7.10543e-13
47	38624	23.91	7.10543e-13
47	38778	24.01	7.10543e-13
47	38928	24.11	3.55271e-13
47	39078	24.21	3.55271e-13
47	39228	24.31	3.55271e-13
47	39378	24.41	3.55271e-13
47	39528	24.51	3.55271e-13
47	39678	24.61	3.55271e-13
47	39828	24.71	3.55271e-13
47	39978	24.81	3.55271e-13
47	40128	24.91	3.55271e-13
47	40282	25.01	3.55271e-13
47	40432	25.11	0
47	40582	25.21	0
47	40732	25.31	0
47	40882	25.41	0
47	41032	25.51	0
47	41182	25.61	0
47	41333	25.71	0
47	41483	25.81	0
47	41633	25.91	0
47	41787	26.01	0
47	41937	26.11	0
47	42087	26.21	0
47	42237	26.31	0
47	42387	26.41	0
47	42537	26.51	0
47	42687	26.61	0
47	42837	26.71	0
47	42987	26.81	0
47	43137	26.91	0
47	43291	27.01	0
47	43441	27.11	0
47	43591	27.21	0
47	43741	27.31	0
47	43891	27.41	0
47	44041	27.51	0
47	44191	27.61	0
47	44341	27.71	0
47	44491	27.81	0
47	44641	27.91	0
47	44795	28.01	0
47	44945	28.11	0
47	45095	28.21	0
47	45245	28.31	0
47	45395	28.41	0
47	45545	28.51	0
47	45695	28.61	0
47	45845	28.71	0
47	45995	28.81	0
47	46145	28.91	0
47	46299	29.01	0
47	46449	29.11	0
47	46599	29.21	0
47	46749	29.31	0
47	46899	29.41	0
47	47049	29.51	0
47	47199	29.61	0
47	47349	29.71	0
47	47499	29.81	0
47	47649	29.91	0
51	26	0.21	1.6
51	176	0.31	1.6
51	326	0.41	1.6
51	476	0.51	1.6
51	626	0.61	1.6
51	776	0.71	1.6
51	926	0.81	1.6
51	1076	0.91	1.6
51	1230	1.01	1.6
51	1381	1.11	1.6
51	1532	1.21	1.6
51	1683	1.31	1.6
51	2046	1.41	1.6
51	2196	1.51	1.6
51	2346	1.61	1.6
51	2496	1.71	1.6
51	2646	1.81	1.6
51	2796	1.91	1.6
51	2950	2.01	1.6
51	3100	2.11	1.6
51	3250	2.21	1.6
51	3400	2.31	1.6
51	3763	2.41	1.6
51	3914	2.51	1.6
51	4064	2.61	1.6
51	4214	2.71	1.6
51	4364	2.81	1.6
51	4514	2.91	1.6
51	4668	3.01	1.6
51	4818	3.11	1.6
51	4968	3.21	1.6
51	5118	3.31	1.6
51	5269	3.41	1.6
51	5676	3.51	1.6
51	5826	3.61	1.6
51	5976	3.71	1.6
51	6126	3.81	1.6
51	6276	3.91	1.6
51	6430	4.01	1.6
51	6580	4.11	1.6
51	6730	4.21	1.6
51	6880	4.31	1.6
51	7030	4.41	1.6
51	7393	4.51	1.6
51	7544	4.61	1.6
51	7694	4.71	1.6
51	7844	4.81	1.6
51	7994	4.91	1.6
51	8148	5.01	1.6
51	8298	5.11	1.6
51	8448	5.21	1.6
51	8598	5.31	1.6
51	8748	5.41	1.6
51	8899	5.51	1.6
51	9262	5.61	1.6
51	9412	5.71	1.6
51	9562	5.81	1.6
51	9712	5.91	1.6
51	9866	6.01	1.6
51	10016	6.11	1.6
51	10166	6.21	1.6
51	10316	6.31	1.6
51	10466	6.41	1.6
51	10616	6.51	1.6
51	11023	6.61	1.6
51	11174	6.71	1.6
51	11324	6.81	1.6
51	11474	6.91	1.6
51	11628	7.01	1.6
51	11778	7.11	1.6
51	11928	7.21	1.6
51	12078	7.31	1.6
51	12228	7.41	1.6
51	12378	7.51	1.6
51	12529	7.61	1.6
51	12892	7.71	1.6
51	13042	7.81	1.6
51	13192	7.91	1.6
51	13346	8.01	1.6
51	13496	8.11	1.6
51	13646	8.21	1.6
51	13796	8.31	1.6
51	13946	8.41	1.6
51	14096	8.51	1.6
51	14246	8.61	1.6
51	14609	8.71	1.6
51	14760	8.81	1.6
51	14910	8.91	1.6
51	15064	9.01	1.6
51	15214	9.11	1.6
51	15364	9.21	1.6
51	15514	9.31	1.6
51	15664	9.41	1.6
51	15814	9.51	1.6
51	15964	9.61	1.6
51	16115	9.71	1.6
51	16522	9.81	1.6
51	16672	9.91	1.6
51	16826	10.01	1.6
51	16976	10.11	1.6
51	17126	10.21	1.6
51	17276	10.31	1.6
51	17426	10.41	1.6
51	17576	10.51	1.6
51	17726	10.61	1.6
51	17876	10.71	1.6
51	18239	10.81	1.6
51	18390	10.91	1.6
51	18544	11.01	1.6
51	18694	11.11	1.6
51	18844	11.21	1.6
51	18994	11.31	1.6
51	19144	11.41	1.6
51	19294	11.51	1.6
51	19444	11.61	1.6
51	19594	11.71	1.6
51	19745	11.81	1.6
51	20108	11.91	1.6
51	20262	12.01	1.6
51	20412	12.11	1.6
51	20562	12.21	1.6
51	20712	12.31	1.6
51	20862	12.41	1.6
51	21012	12.51	1.6
51	21162	12.61	1.6
51	21312	12.71	1.6
51	21462	12.81	1.6
51	21845	12.91	1.6
51	22000	13.01	1.6
51	22150	13.11	1.6
51	22300	13.21	1.6
51	22450	13.31	1.6
51	22600	13.41	1.6
51	22750	13.51	1.6
51	22900	13.61	1.6
51	23050	13.71	1.6
51	23200	13.81	1.6
51	23351	13.91	1.6
51	23738	14.01	1.6
51	23888	14.11	1.6
51	24038	14.21	1.6
51	24188	14.31	1.6
51	24338	14.41	1.6
51	24488	14.51	1.6
51	24638	14.61	1.6
51	24788	14.71	1.6
51	24938	14.81	1.6
51	25088	14.91	1.6
51	25242	15.01	1.6
51	25392	15.11	1.6
51	25542	15.21	1.6
51	25692	15.31	1.6
51	25842	15.41	1.6
51	25992	15.51	1.6
51	26142	15.61	1.6
51	26292	15.71	1.6
51	26442	15.81	1.6
51	26592	15.91	1.6
51	26746	16.01	1.6
51	26896	16.11	1.6
51	27046	16.21	1.6
51	27196	16.31	1.6
51	27346	16.41	1.6
51	27496	16.51	1.6
51	27646	16.61	1.6
51	27796	16.71	1.6
51	27946	16.81	1.6
51	28096	16.91	1.6
51	28250	17.01	1.6
51	28400	17.11	1.6
51	28550	17.21	1.6
51	28700	17.31	1.6
51	28850	17.41	1.6
51	29000	17.51	1.6
51	29150	17.61	1.6
51	29300	17.71	1.6
51	29450	17.81	1.6
51	29600	17.91	1.6
51	29754	18.01	1.6
51	29904	18.11	1.6
51	30054	18.21	1.6
51	30204	18.31	1.6
51	30354	18.41	1.6
51	30504	18.51	1.6
51	30654	18.61	1.6
51	30804	18.71	1.6
51	30954	18.81	1.6
51	31104	18.91	1.6
51	31258	19.01	1.6
51	31408	19.11	1.6
51	31558	19.21	1.6
51	31708	19.31	1.6
51	31858	19.41	1.6
51	32008	19.51	1.6
51	32158	19.61	1.6
51	32308	19.71	1.6
51	32458	19.81	1.6
51	32608	19.91	1.6
51	32762	20.01	1.6
51	32912	20.11	1.6
51	33062	20.21	1.6
51	33212	20.31	1.6
51	33362	20.41	1.6
51	33512	20.51	1.6
51	33662	20.61	1.6
51	33812	20.71	1.6
51	33962	20.81	1.6
51	34112	20.91	1.6
51	34266	21.01	1.6
51	34416	21.11	1.6
51	34566	21.21	1.6
51	34716	21.31	1.6
51	34866	21.41	1.6
51	35016	21.51	1.6
51	35166	21.61	1.6
51	35316	21.71	1.6
51	35466	21.81	1.6
51	35616	21.91	1.6
51	35770	22.01	1.6
51	35920	22.11	1.6
51	36070	22.21	1.6
51	36220	22.31	1.6
51	36370	22.41	1.6
51	36520	22.51	1.6
51	36670	22.61	1.6
51	36820	22.71	1.6
51	36970	22.81	1.6
51	37120	22.91	1.6
51	37274	23.01	1.6
51	37424	23.11	1.6
51	37574	23.21	1.6
51	37724	23.31	1.6
51	37874	23.41	1.6
51	38024	23.51	1.6
51	38174	23.61	1.6
51	38324	23.71	1.6
51	38474	23.81	1.6
51	38624	23.91	1.6
51	38778	24.01	1.6
51	38928	24.11	1.6
51	39078	24.21	1.6
51	39228	24.31	1.6
51	39378	24.41	1.6
51	39528	24.51	1.6
51	39678	24.61	1.6
51	39828	24.71	1.6
51	39978	24.81	1.6
51	40128	24.91	1.6
51	40282	25.01	1.6
51	40432	25.11	1.6
51	40582	25.21	1.6
51	40732	25.31	1.6
51	40882	25.41	1.6
51	41032	25.51	1.6
51	41182	25.61	1.6
51	41333	25.71	1.6
51	41483	25.81	1.6
51	41633	25.91	1.6
51	41787	26.01	1.6
51	41937	26.11	1.6
51	42087	26.21	1.6
51	42237	26.31	1.6
51	42387	26.41	1.6
51	42537	26.51	1.6
51	42687	26.61	1.6
51	42837	26.71	1.6
51	42987	26.81	1.6
51	43137	26.91	1.6
51	43291	27.01	1.6
51	43441	27.11	1.6
51	43591	27.21	1.6
51	43741	27.31	1.6
51	43891	27.41	1.6
51	44041	27.51	1.6
51	44191	27.61	1.6
51	44341	27.71	1.6
51	44491	27.81	1.6
51	44641	27.91	1.6
51	44795	28.01	1.6
51	44945	28.11	1.6
51	45095	28.21	1.6
51	45245	28.31	1.6
51	45395	28.41	1.6
51	45545	28.51	1.6
51	45695	28.61	1.6
51	45845	28.71	1.6
51	45995	28.81	1.6
51	46145	28.91	1.6
51	46299	29.01	1.6
51	46449	29.11	1.6
51	46599	29.21	1.6
51	46749	29.31	1.6
51	46899	29.41	1.6
51	47049	29.51	1.6
51	47199	29.61	1.6
51	47349	29.71	1.6
51	47499	29.81	1.6
51	47649	29.91	1.6
50	26	0.21	512.45
50	176	0.31	510.728
50	326	0.41	509.006
50	476	0.51	507.284
50	626	0.61	505.562
50	776	0.71	503.84
50	926	0.81	502.118
50	1076	0.91	500.396
50	1230	1.01	498.674
50	1381	1.11	496.952
50	1532	1.21	495.23
50	1683	1.31	493.508
50	2046	1.41	491.785
50	2196	1.51	490.063
50	2346	1.61	488.341
50	2496	1.71	486.619
50	2646	1.81	484.897
50	2796	1.91	483.175
50	2950	2.01	481.452
50	3100	2.11	479.73
50	3250	2.21	478.008
50	3400	2.31	476.286
50	3763	2.41	474.564
50	3914	2.51	472.841
50	4064	2.61	471.119
50	4214	2.71	469.397
50	4364	2.81	467.675
50	4514	2.91	465.952
50	4668	3.01	464.23
50	4818	3.11	462.508
50	4968	3.21	460.786
50	5118	3.31	459.063
50	5269	3.41	457.341
50	5676	3.51	455.619
50	5826	3.61	453.897
50	5976	3.71	452.175
50	6126	3.81	450.452
50	6276	3.91	448.73
50	6430	4.01	447.008
50	6580	4.11	445.286
50	6730	4.21	443.563
50	6880	4.31	441.841
50	7030	4.41	440.119
50	7393	4.51	438.397
50	7544	4.61	436.675
50	7694	4.71	434.952
50	7844	4.81	433.23
50	7994	4.91	431.508
50	8148	5.01	429.786
50	8298	5.11	428.063
50	8448	5.21	426.341
50	8598	5.31	424.619
50	8748	5.41	422.897
50	8899	5.51	421.175
50	9262	5.61	419.452
50	9412	5.71	417.73
50	9562	5.81	416.008
50	9712	5.91	414.286
50	9866	6.01	412.563
50	10016	6.11	410.841
50	10166	6.21	409.119
50	10316	6.31	407.397
50	10466	6.41	405.675
50	10616	6.51	403.952
50	11023	6.61	402.23
50	11174	6.71	400.508
50	11324	6.81	398.786
50	11474	6.91	397.063
50	11628	7.01	395.341
50	11778	7.11	393.619
50	11928	7.21	391.897
50	12078	7.31	390.175
50	12228	7.41	388.452
50	12378	7.51	386.73
50	12529	7.61	385.008
50	12892	7.71	383.286
50	13042	7.81	381.563
50	13192	7.91	379.841
50	13346	8.01	378.119
50	13496	8.11	376.397
50	13646	8.21	374.675
50	13796	8.31	372.952
50	13946	8.41	371.23
50	14096	8.51	369.508
50	14246	8.61	367.786
50	14609	8.71	366.063
50	14760	8.81	364.341
50	14910	8.91	362.619
50	15064	9.01	360.897
50	15214	9.11	359.175
50	15364	9.21	357.452
50	15514	9.31	355.73
50	15664	9.41	354.008
50	15814	9.51	352.286
50	15964	9.61	350.564
50	16115	9.71	348.841
50	16522	9.81	347.119
50	16672	9.91	345.397
50	16826	10.01	343.675
50	16976	10.11	341.952
50	17126	10.21	340.23
50	17276	10.31	338.508
50	17426	10.41	336.786
50	17576	10.51	335.064
50	17726	10.61	333.341
50	17876	10.71	331.619
50	18239	10.81	329.897
50	18390	10.91	328.175
50	18544	11.01	326.452
50	18694	11.11	324.73
50	18844	11.21	323.008
50	18994	11.31	321.286
50	19144	11.41	319.564
50	19294	11.51	317.841
50	19444	11.61	316.119
50	19594	11.71	314.397
50	19745	11.81	312.675
50	20108	11.91	310.952
50	20262	12.01	309.23
50	20412	12.11	307.508
50	20562	12.21	305.786
50	20712	12.31	304.064
50	20862	12.41	302.341
50	21012	12.51	300.619
50	21162	12.61	298.897
50	21312	12.71	297.175
50	21462	12.81	295.452
50	21845	12.91	293.73
50	22000	13.01	292.008
50	22150	13.11	290.286
50	22300	13.21	288.564
50	22450	13.31	286.841
50	22600	13.41	285.119
50	22750	13.51	283.397
50	22900	13.61	281.675
50	23050	13.71	279.952
50	23200	13.81	278.23
50	23351	13.91	276.508
50	23738	14.01	274.786
50	23888	14.11	273.064
50	24038	14.21	271.341
50	24188	14.31	269.619
50	24338	14.41	267.897
50	24488	14.51	266.175
50	24638	14.61	264.453
50	24788	14.71	262.73
50	24938	14.81	261.008
50	25088	14.91	259.286
50	25242	15.01	257.564
50	25392	15.11	255.841
50	25542	15.21	254.119
50	25692	15.31	252.397
50	25842	15.41	250.675
50	25992	15.51	248.953
50	26142	15.61	247.23
50	26292	15.71	245.508
50	26442	15.81	243.786
50	26592	15.91	242.064
50	26746	16.01	240.341
50	26896	16.11	238.619
50	27046	16.21	236.897
50	27196	16.31	235.175
50	27346	16.41	233.453
50	27496	16.51	231.73
50	27646	16.61	230.008
50	27796	16.71	228.286
50	27946	16.81	226.564
50	28096	16.91	224.841
50	28250	17.01	223.119
50	28400	17.11	221.397
50	28550	17.21	219.675
50	28700	17.31	217.953
50	28850	17.41	216.23
50	29000	17.51	214.508
50	29150	17.61	212.786
50	29300	17.71	211.064
50	29450	17.81	209.341
50	29600	17.91	207.619
50	29754	18.01	205.897
50	29904	18.11	204.175
50	30054	18.21	202.453
50	30204	18.31	200.73
50	30354	18.41	199.008
50	30504	18.51	197.286
50	30654	18.61	195.564
50	30804	18.71	193.841
50	30954	18.81	192.119
50	31104	18.91	190.397
50	31258	19.01	188.675
50	31408	19.11	186.953
50	31558	19.21	185.23
50	31708	19.31	183.508
50	31858	19.41	181.786
50	32008	19.51	180.064
50	32158	19.61	178.342
50	32308	19.71	176.619
50	32458	19.81	174.897
50	32608	19.91	173.175
50	32762	20.01	171.453
50	32912	20.11	169.73
50	33062	20.21	168.008
50	33212	20.31	166.286
50	33362	20.41	164.564
50	33512	20.51	162.842
50	33662	20.61	161.119
50	33812	20.71	159.397
50	33962	20.81	157.675
50	34112	20.91	155.953
50	34266	21.01	154.23
50	34416	21.11	152.508
50	34566	21.21	150.786
50	34716	21.31	149.064
50	34866	21.41	147.342
50	35016	21.51	145.619
50	35166	21.61	143.897
50	35316	21.71	142.175
50	35466	21.81	140.453
50	35616	21.91	138.73
50	35770	22.01	137.008
50	35920	22.11	135.286
50	36070	22.21	133.564
50	36220	22.31	131.842
50	36370	22.41	130.119
50	36520	22.51	128.397
50	36670	22.61	126.675
50	36820	22.71	124.953
50	36970	22.81	123.23
50	37120	22.91	121.508
50	37274	23.01	119.786
50	37424	23.11	118.064
50	37574	23.21	116.342
50	37724	23.31	114.619
50	37874	23.41	112.897
50	38024	23.51	111.175
50	38174	23.61	109.453
50	38324	23.71	107.73
50	38474	23.81	106.008
50	38624	23.91	104.286
50	38778	24.01	102.564
50	38928	24.11	100.842
50	39078	24.21	99.1194
50	39228	24.31	97.3972
50	39378	24.41	95.675
50	39528	24.51	93.9527
50	39678	24.61	92.2305
50	39828	24.71	90.5083
50	39978	24.81	88.7861
50	40128	24.91	87.0639
50	40282	25.01	85.3416
50	40432	25.11	83.6194
50	40582	25.21	81.8972
50	40732	25.31	80.175
50	40882	25.41	78.4528
50	41032	25.51	76.7305
50	41182	25.61	75.0083
50	41333	25.71	73.2861
50	41483	25.81	71.5639
50	41633	25.91	69.8417
50	41787	26.01	68.1194
50	41937	26.11	66.3972
50	42087	26.21	64.675
50	42237	26.31	62.9528
50	42387	26.41	61.2306
50	42537	26.51	59.5083
50	42687	26.61	57.7861
50	42837	26.71	56.0639
50	42987	26.81	54.3417
50	43137	26.91	52.6195
50	43291	27.01	50.8972
50	43441	27.11	49.175
50	43591	27.21	47.4528
50	43741	27.31	45.7306
50	43891	27.41	44.0084
50	44041	27.51	42.2861
50	44191	27.61	40.5639
50	44341	27.71	38.8417
50	44491	27.81	37.1195
50	44641	27.91	35.3973
50	44795	28.01	33.675
50	44945	28.11	31.9528
50	45095	28.21	30.2306
50	45245	28.31	28.5084
50	45395	28.41	26.7862
50	45545	28.51	25.0639
50	45695	28.61	23.3417
50	45845	28.71	21.6195
50	45995	28.81	19.8973
50	46145	28.91	18.1751
50	46299	29.01	16.4528
50	46449	29.11	14.7306
50	46599	29.21	13.0084
50	46749	29.31	11.2862
50	46899	29.41	9.56395
50	47049	29.51	7.84173
50	47199	29.61	6.11951
50	47349	29.71	4.39729
50	47499	29.81	2.67507
50	47649	29.91	0.952851
49	26	0.21	17.22
49	176	0.31	17.2201
49	326	0.41	17.2202
49	476	0.51	17.2203
49	626	0.61	17.2204
49	776	0.71	17.2205
49	926	0.81	17.2206
49	1076	0.91	17.2208
49	1230	1.01	17.2209
49	1381	1.11	17.2211
49	1532	1.21	17.2212
49	1683	1.31	17.2213
49	2046	1.41	17.2215
49	2196	1.51	17.2216
49	2346	1.61	17.2217
49	2496	1.71	17.2218
49	2646	1.81	17.2218
49	2796	1.91	17.2219
49	2950	2.01	17.222
49	3100	2.11	17.2221
49	3250	2.21	17.2221
49	3400	2.31	17.2221
49	3763	2.41	17.2222
49	3914	2.51	17.2222
49	4064	2.61	17.2222
49	4214	2.71	17.2223
49	4364	2.81	17.2223
49	4514	2.91	17.2223
49	4668	3.01	17.2223
49	4818	3.11	17.2223
49	4968	3.21	17.2223
49	5118	3.31	17.2223
49	5269	3.41	17.2223
49	5676	3.51	17.2223
49	5826	3.61	17.2223
49	5976	3.71	17.2223
49	6126	3.81	17.2223
49	6276	3.91	17.2223
49	6430	4.01	17.2223
49	6580	4.11	17.2223
49	6730	4.21	17.2223
49	6880	4.31	17.2222
49	7030	4.41	17.2222
49	7393	4.51	17.2222
49	7544	4.61	17.2222
49	7694	4.71	17.2222
49	7844	4.81	17.2222
49	7994	4.91	17.2222
49	8148	5.01	17.2222
49	8298	5.11	17.2222
49	8448	5.21	17.2222
49	8598	5.31	17.2222
49	8748	5.41	17.2222
49	8899	5.51	17.2222
49	9262	5.61	17.2222
49	9412	5.71	17.2222
49	9562	5.81	17.2222
49	9712	5.91	17.2222
49	9866	6.01	17.2222
49	10016	6.11	17.2222
49	10166	6.21	17.2222
49	10316	6.31	17.2222
49	10466	6.41	17.2222
49	10616	6.51	17.2222
49	11023	6.61	17.2222
49	11174	6.71	17.2222
49	11324	6.81	17.2222
49	11474	6.91	17.2222
49	11628	7.01	17.2222
49	11778	7.11	17.2222
49	11928	7.21	17.2222
49	12078	7.31	17.2222
49	12228	7.41	17.2222
49	12378	7.51	17.2222
49	12529	7.61	17.2222
49	12892	7.71	17.2222
49	13042	7.81	17.2222
49	13192	7.91	17.2222
49	13346	8.01	17.2222
49	13496	8.11	17.2222
49	13646	8.21	17.2222
49	13796	8.31	17.2222
49	13946	8.41	17.2222
49	14096	8.51	17.2222
49	14246	8.61	17.2222
49	14609	8.71	17.2222
49	14760	8.81	17.2222
49	14910	8.91	17.2222
49	15064	9.01	17.2222
49	15214	9.11	17.2222
49	15364	9.21	17.2222
49	15514	9.31	17.2222
49	15664	9.41	17.2222
49	15814	9.51	17.2222
49	15964	9.61	17.2222
49	16115	9.71	17.2222
49	16522	9.81	17.2222
49	16672	9.91	17.2222
49	16826	10.01	17.2222
49	16976	10.11	17.2222
49	17126	10.21	17.2222
49	17276	10.31	17.2222
49	17426	10.41	17.2222
49	17576	10.51	17.2222
49	17726	10.61	17.2222
49	17876	10.71	17.2222
49	18239	10.81	17.2222
49	18390	10.91	17.2222
49	18544	11.01	17.2222
49	18694	11.11	17.2222
49	18844	11.21	17.2222
49	18994	11.31	17.2222
49	19144	11.41	17.2222
49	19294	11.51	17.2222
49	19444	11.61	17.2222
49	19594	11.71	17.2222
49	19745	11.81	17.2222
49	20108	11.91	17.2222
49	20262	12.01	17.2222
49	20412	12.11	17.2222
49	20562	12.21	17.2222
49	20712	12.31	17.2222
49	20862	12.41	17.2222
49	21012	12.51	17.2222
49	21162	12.61	17.2222
49	21312	12.71	17.2222
49	21462	12.81	17.2222
49	21845	12.91	17.2222
49	22000	13.01	17.2222
49	22150	13.11	17.2222
49	22300	13.21	17.2222
49	22450	13.31	17.2222
49	22600	13.41	17.2222
49	22750	13.51	17.2222
49	22900	13.61	17.2222
49	23050	13.71	17.2222
49	23200	13.81	17.2222
49	23351	13.91	17.2222
49	23738	14.01	17.2222
49	23888	14.11	17.2222
49	24038	14.21	17.2222
49	24188	14.31	17.2222
49	24338	14.41	17.2222
49	24488	14.51	17.2222
49	24638	14.61	17.2222
49	24788	14.71	17.2222
49	24938	14.81	17.2222
49	25088	14.91	17.2222
49	25242	15.01	17.2222
49	25392	15.11	17.2222
49	25542	15.21	17.2222
49	25692	15.31	17.2222
49	25842	15.41	17.2222
49	25992	15.51	17.2222
49	26142	15.61	17.2222
49	26292	15.71	17.2222
49	26442	15.81	17.2222
49	26592	15.91	17.2222
49	26746	16.01	17.2222
49	26896	16.11	17.2222
49	27046	16.21	17.2222
49	27196	16.31	17.2222
49	27346	16.41	17.2222
49	27496	16.51	17.2222
49	27646	16.61	17.2222
49	27796	16.71	17.2222
49	27946	16.81	17.2222
49	28096	16.91	17.2222
49	28250	17.01	17.2222
49	28400	17.11	17.2222
49	28550	17.21	17.2222
49	28700	17.31	17.2222
49	28850	17.41	17.2222
49	29000	17.51	17.2222
49	29150	17.61	17.2222
49	29300	17.71	17.2222
49	29450	17.81	17.2222
49	29600	17.91	17.2222
49	29754	18.01	17.2222
49	29904	18.11	17.2222
49	30054	18.21	17.2222
49	30204	18.31	17.2222
49	30354	18.41	17.2222
49	30504	18.51	17.2222
49	30654	18.61	17.2222
49	30804	18.71	17.2222
49	30954	18.81	17.2222
49	31104	18.91	17.2222
49	31258	19.01	17.2222
49	31408	19.11	17.2222
49	31558	19.21	17.2222
49	31708	19.31	17.2222
49	31858	19.41	17.2222
49	32008	19.51	17.2222
49	32158	19.61	17.2222
49	32308	19.71	17.2222
49	32458	19.81	17.2222
49	32608	19.91	17.2222
49	32762	20.01	17.2222
49	32912	20.11	17.2222
49	33062	20.21	17.2222
49	33212	20.31	17.2222
49	33362	20.41	17.2222
49	33512	20.51	17.2222
49	33662	20.61	17.2222
49	33812	20.71	17.2222
49	33962	20.81	17.2222
49	34112	20.91	17.2222
49	34266	21.01	17.2222
49	34416	21.11	17.2222
49	34566	21.21	17.2222
49	34716	21.31	17.2222
49	34866	21.41	17.2222
49	35016	21.51	17.2222
49	35166	21.61	17.2222
49	35316	21.71	17.2222
49	35466	21.81	17.2222
49	35616	21.91	17.2222
49	35770	22.01	17.2222
49	35920	22.11	17.2222
49	36070	22.21	17.2222
49	36220	22.31	17.2222
49	36370	22.41	17.2222
49	36520	22.51	17.2222
49	36670	22.61	17.2222
49	36820	22.71	17.2222
49	36970	22.81	17.2222
49	37120	22.91	17.2222
49	37274	23.01	17.2222
49	37424	23.11	17.2222
49	37574	23.21	17.2222
49	37724	23.31	17.2222
49	37874	23.41	17.2222
49	38024	23.51	17.2222
49	38174	23.61	17.2222
49	38324	23.71	17.2222
49	38474	23.81	17.2222
49	38624	23.91	17.2222
49	38778	24.01	17.2222
49	38928	24.11	17.2222
49	39078	24.21	17.2222
49	39228	24.31	17.2222
49	39378	24.41	17.2222
49	39528	24.51	17.2222
49	39678	24.61	17.2222
49	39828	24.71	17.2222
49	39978	24.81	17.2222
49	40128	24.91	17.2222
49	40282	25.01	17.2222
49	40432	25.11	17.2222
49	40582	25.21	17.2222
49	40732	25.31	17.2222
49	40882	25.41	17.2222
49	41032	25.51	17.2222
49	41182	25.61	17.2222
49	41333	25.71	17.2222
49	41483	25.81	17.2222
49	41633	25.91	17.2222
49	41787	26.01	17.2222
49	41937	26.11	17.2222
49	42087	26.21	17.2222
49	42237	26.31	17.2222
49	42387	26.41	17.2222
49	42537	26.51	17.2222
49	42687	26.61	17.2222
49	42837	26.71	17.2222
49	42987	26.81	17.2222
49	43137	26.91	17.2222
49	43291	27.01	17.2222
49	43441	27.11	17.2222
49	43591	27.21	17.2222
49	43741	27.31	17.2222
49	43891	27.41	17.2222
49	44041	27.51	17.2222
49	44191	27.61	17.2222
49	44341	27.71	17.2222
49	44491	27.81	17.2222
49	44641	27.91	17.2222
49	44795	28.01	17.2222
49	44945	28.11	17.2222
49	45095	28.21	17.2222
49	45245	28.31	17.2222
49	45395	28.41	17.2222
49	45545	28.51	17.2222
49	45695	28.61	17.2222
49	45845	28.71	17.2222
49	45995	28.81	17.2222
49	46145	28.91	17.2222
49	46299	29.01	17.2222
49	46449	29.11	17.2222
49	46599	29.21	17.2222
49	46749	29.31	17.2222
49	46899	29.41	17.2222
49	47049	29.51	17.2222
49	47199	29.61	17.2222
49	47349	29.71	17.2222
49	47499	29.81	17.2222
49	47649	29.91	17.2222
45	26	0.21	0
45	176	0.31	0
45	326	0.41	0
45	476	0.51	0
45	626	0.61	0
45	776	0.71	0
45	926	0.81	0
45	1076	0.91	0
45	1230	1.01	0
45	1381	1.11	0
45	1532	1.21	0
45	1683	1.31	0
45	2046	1.41	0
45	2196	1.51	0
45	2346	1.61	0
45	2496	1.71	0
45	2646	1.81	0
45	2796	1.91	0
45	2950	2.01	0
45	3100	2.11	0
45	3250	2.21	0
45	3400	2.31	0
45	3763	2.41	0
45	3914	2.51	0
45	4064	2.61	0
45	4214	2.71	0
45	4364	2.81	0
45	4514	2.91	0
45	4668	3.01	0
45	4818	3.11	0
45	4968	3.21	0
45	5118	3.31	0
45	5269	3.41	0
45	5676	3.51	0
45	5826	3.61	0
45	5976	3.71	0
45	6126	3.81	0
45	6276	3.91	0
45	6430	4.01	0
45	6580	4.11	0
45	6730	4.21	0
45	6880	4.31	0
45	7030	4.41	0
45	7393	4.51	0
45	7544	4.61	0
45	7694	4.71	0
45	7844	4.81	0
45	7994	4.91	0
45	8148	5.01	0
45	8298	5.11	0
45	8448	5.21	0
45	8598	5.31	0
45	8748	5.41	0
45	8899	5.51	0
45	9262	5.61	0
45	9412	5.71	0
45	9562	5.81	0
45	9712	5.91	0
45	9866	6.01	0
45	10016	6.11	0
45	10166	6.21	0
45	10316	6.31	0
45	10466	6.41	0
45	10616	6.51	0
45	11023	6.61	0
45	11174	6.71	0
45	11324	6.81	0
45	11474	6.91	0
45	11628	7.01	0
45	11778	7.11	0
45	11928	7.21	0
45	12078	7.31	0
45	12228	7.41	0
45	12378	7.51	0
45	12529	7.61	0
45	12892	7.71	0
45	13042	7.81	0
45	13192	7.91	0
45	13346	8.01	0
45	13496	8.11	0
45	13646	8.21	0
45	13796	8.31	0
45	13946	8.41	0
45	14096	8.51	0
45	14246	8.61	0
45	14609	8.71	0
45	14760	8.81	0
45	14910	8.91	0
45	15064	9.01	0
45	15214	9.11	0
45	15364	9.21	0
45	15514	9.31	0
45	15664	9.41	0
45	15814	9.51	0
45	15964	9.61	0
45	16115	9.71	0
45	16522	9.81	0
45	16672	9.91	0
45	16826	10.01	0
45	16976	10.11	0
45	17126	10.21	0
45	17276	10.31	0
45	17426	10.41	0
45	17576	10.51	0
45	17726	10.61	0
45	17876	10.71	0
45	18239	10.81	0
45	18390	10.91	0
45	18544	11.01	0
45	18694	11.11	0
45	18844	11.21	0
45	18994	11.31	0
45	19144	11.41	0
45	19294	11.51	0
45	19444	11.61	0
45	19594	11.71	0
45	19745	11.81	0
45	20108	11.91	0
45	20262	12.01	0
45	20412	12.11	0
45	20562	12.21	0
45	20712	12.31	0
45	20862	12.41	0
45	21012	12.51	0
45	21162	12.61	0
45	21312	12.71	0
45	21462	12.81	0
45	21845	12.91	0
45	22000	13.01	0
45	22150	13.11	0
45	22300	13.21	0
45	22450	13.31	0
45	22600	13.41	0
45	22750	13.51	0
45	22900	13.61	0
45	23050	13.71	0
45	23200	13.81	0
45	23351	13.91	0
45	23738	14.01	0
45	23888	14.11	0
45	24038	14.21	0
45	24188	14.31	0
45	24338	14.41	0
45	24488	14.51	0
45	24638	14.61	0
45	24788	14.71	0
45	24938	14.81	0
45	25088	14.91	0
45	25242	15.01	0
45	25392	15.11	0
45	25542	15.21	0
45	25692	15.31	0
45	25842	15.41	0
45	25992	15.51	0
45	26142	15.61	0
45	26292	15.71	0
45	26442	15.81	0
45	26592	15.91	0
45	26746	16.01	0
45	26896	16.11	0
45	27046	16.21	0
45	27196	16.31	0
45	27346	16.41	0
45	27496	16.51	0
45	27646	16.61	0
45	27796	16.71	0
45	27946	16.81	0
45	28096	16.91	0
45	28250	17.01	0
45	28400	17.11	0
45	28550	17.21	0
45	28700	17.31	0
45	28850	17.41	0
45	29000	17.51	0
45	29150	17.61	0
45	29300	17.71	0
45	29450	17.81	0
45	29600	17.91	0
45	29754	18.01	0
45	29904	18.11	0
45	30054	18.21	0
45	30204	18.31	0
45	30354	18.41	0
45	30504	18.51	0
45	30654	18.61	0
45	30804	18.71	0
45	30954	18.81	0
45	31104	18.91	0
45	31258	19.01	0
45	31408	19.11	0
45	31558	19.21	0
45	31708	19.31	0
45	31858	19.41	0
45	32008	19.51	0
45	32158	19.61	0
45	32308	19.71	0
45	32458	19.81	0
45	32608	19.91	0
45	32762	20.01	0
45	32912	20.11	0
45	33062	20.21	0
45	33212	20.31	0
45	33362	20.41	0
45	33512	20.51	0
45	33662	20.61	0
45	33812	20.71	0
45	33962	20.81	0
45	34112	20.91	0
45	34266	21.01	0
45	34416	21.11	0
45	34566	21.21	0
45	34716	21.31	0
45	34866	21.41	0
45	35016	21.51	0
45	35166	21.61	0
45	35316	21.71	0
45	35466	21.81	0
45	35616	21.91	0
45	35770	22.01	0
45	35920	22.11	0
45	36070	22.21	0
45	36220	22.31	0
45	36370	22.41	0
45	36520	22.51	0
45	36670	22.61	0
45	36820	22.71	0
45	36970	22.81	0
45	37120	22.91	0
45	37274	23.01	0
45	37424	23.11	0
45	37574	23.21	0
45	37724	23.31	0
45	37874	23.41	0
45	38024	23.51	0
45	38174	23.61	0
45	38324	23.71	0
45	38474	23.81	0
45	38624	23.91	0
45	38778	24.01	0
45	38928	24.11	0
45	39078	24.21	0
45	39228	24.31	0
45	39378	24.41	0
45	39528	24.51	0
45	39678	24.61	0
45	39828	24.71	0
45	39978	24.81	0
45	40128	24.91	0
45	40282	25.01	0
45	40432	25.11	0
45	40582	25.21	0
45	40732	25.31	0
45	40882	25.41	0
45	41032	25.51	0
45	41182	25.61	0
45	41333	25.71	0
45	41483	25.81	0
45	41633	25.91	0
45	41787	26.01	0
45	41937	26.11	0
45	42087	26.21	0
45	42237	26.31	0
45	42387	26.41	0
45	42537	26.51	0
45	42687	26.61	0
45	42837	26.71	0
45	42987	26.81	0
45	43137	26.91	0
45	43291	27.01	0
45	43441	27.11	0
45	43591	27.21	0
45	43741	27.31	0
45	43891	27.41	0
45	44041	27.51	0
45	44191	27.61	0
45	44341	27.71	0
45	44491	27.81	0
45	44641	27.91	0
45	44795	28.01	0
45	44945	28.11	0
45	45095	28.21	0
45	45245	28.31	0
45	45395	28.41	0
45	45545	28.51	0
45	45695	28.61	0
45	45845	28.71	0
45	45995	28.81	0
45	46145	28.91	0
45	46299	29.01	0
45	46449	29.11	0
45	46599	29.21	0
45	46749	29.31	0
45	46899	29.41	0
45	47049	29.51	0
45	47199	29.61	0
45	47349	29.71	0
45	47499	29.81	0
45	47649	29.91	0
44	26	0.21	-1
44	176	0.31	-1
44	326	0.41	-1
44	476	0.51	-1
44	626	0.61	-1
44	776	0.71	-1
44	926	0.81	-1
44	1076	0.91	-1
44	1230	1.01	-1
44	1381	1.11	-1
44	1532	1.21	-1
44	1683	1.31	-1
44	2046	1.41	-1
44	2196	1.51	-1
44	2346	1.61	-1
44	2496	1.71	-1
44	2646	1.81	-1
44	2796	1.91	-1
44	2950	2.01	-1
44	3100	2.11	-1
44	3250	2.21	-1
44	3400	2.31	-1
44	3763	2.41	-1
44	3914	2.51	-1
44	4064	2.61	-1
44	4214	2.71	-1
44	4364	2.81	-1
44	4514	2.91	-1
44	4668	3.01	-1
44	4818	3.11	-1
44	4968	3.21	-1
44	5118	3.31	-1
44	5269	3.41	-1
44	5676	3.51	-1
44	5826	3.61	-1
44	5976	3.71	-1
44	6126	3.81	-1
44	6276	3.91	-1
44	6430	4.01	-1
44	6580	4.11	-1
44	6730	4.21	-1
44	6880	4.31	-1
44	7030	4.41	-1
44	7393	4.51	-1
44	7544	4.61	-1
44	7694	4.71	-1
44	7844	4.81	-1
44	7994	4.91	-1
44	8148	5.01	-1
44	8298	5.11	-1
44	8448	5.21	-1
44	8598	5.31	-1
44	8748	5.41	-1
44	8899	5.51	-1
44	9262	5.61	-1
44	9412	5.71	-1
44	9562	5.81	-1
44	9712	5.91	-1
44	9866	6.01	-1
44	10016	6.11	-1
44	10166	6.21	-1
44	10316	6.31	-1
44	10466	6.41	-1
44	10616	6.51	-1
44	11023	6.61	-1
44	11174	6.71	-1
44	11324	6.81	-1
44	11474	6.91	-1
44	11628	7.01	-1
44	11778	7.11	-1
44	11928	7.21	-1
44	12078	7.31	-1
44	12228	7.41	-1
44	12378	7.51	-1
44	12529	7.61	-1
44	12892	7.71	-1
44	13042	7.81	-1
44	13192	7.91	-1
44	13346	8.01	-1
44	13496	8.11	-1
44	13646	8.21	-1
44	13796	8.31	-1
44	13946	8.41	-1
44	14096	8.51	-1
44	14246	8.61	-1
44	14609	8.71	-1
44	14760	8.81	-1
44	14910	8.91	-1
44	15064	9.01	-1
44	15214	9.11	-1
44	15364	9.21	-1
44	15514	9.31	-1
44	15664	9.41	-1
44	15814	9.51	-1
44	15964	9.61	-1
44	16115	9.71	-1
44	16522	9.81	-1
44	16672	9.91	-1
44	16826	10.01	-1
44	16976	10.11	-1
44	17126	10.21	-1
44	17276	10.31	-1
44	17426	10.41	-1
44	17576	10.51	-1
44	17726	10.61	-1
44	17876	10.71	-1
44	18239	10.81	-1
44	18390	10.91	-1
44	18544	11.01	-1
44	18694	11.11	-1
44	18844	11.21	-1
44	18994	11.31	-1
44	19144	11.41	-1
44	19294	11.51	-1
44	19444	11.61	-1
44	19594	11.71	-1
44	19745	11.81	-1
44	20108	11.91	-1
44	20262	12.01	-1
44	20412	12.11	-1
44	20562	12.21	-1
44	20712	12.31	-1
44	20862	12.41	-1
44	21012	12.51	-1
44	21162	12.61	-1
44	21312	12.71	-1
44	21462	12.81	-1
44	21845	12.91	-1
44	22000	13.01	-1
44	22150	13.11	-1
44	22300	13.21	-1
44	22450	13.31	-1
44	22600	13.41	-1
44	22750	13.51	-1
44	22900	13.61	-1
44	23050	13.71	-1
44	23200	13.81	-1
44	23351	13.91	-1
44	23738	14.01	-1
44	23888	14.11	-1
44	24038	14.21	-1
44	24188	14.31	-1
44	24338	14.41	-1
44	24488	14.51	-1
44	24638	14.61	-1
44	24788	14.71	-1
44	24938	14.81	-1
44	25088	14.91	-1
44	25242	15.01	-1
44	25392	15.11	-1
44	25542	15.21	-1
44	25692	15.31	-1
44	25842	15.41	-1
44	25992	15.51	-1
44	26142	15.61	-1
44	26292	15.71	-1
44	26442	15.81	-1
44	26592	15.91	-1
44	26746	16.01	-1
44	26896	16.11	-1
44	27046	16.21	-1
44	27196	16.31	-1
44	27346	16.41	-1
44	27496	16.51	-1
44	27646	16.61	-1
44	27796	16.71	-1
44	27946	16.81	-1
44	28096	16.91	-1
44	28250	17.01	-1
44	28400	17.11	-1
44	28550	17.21	-1
44	28700	17.31	-1
44	28850	17.41	-1
44	29000	17.51	-1
44	29150	17.61	-1
44	29300	17.71	-1
44	29450	17.81	-1
44	29600	17.91	-1
44	29754	18.01	-1
44	29904	18.11	-1
44	30054	18.21	-1
44	30204	18.31	-1
44	30354	18.41	-1
44	30504	18.51	-1
44	30654	18.61	-1
44	30804	18.71	-1
44	30954	18.81	-1
44	31104	18.91	-1
44	31258	19.01	-1
44	31408	19.11	-1
44	31558	19.21	-1
44	31708	19.31	-1
44	31858	19.41	-1
44	32008	19.51	-1
44	32158	19.61	-1
44	32308	19.71	-1
44	32458	19.81	-1
44	32608	19.91	-1
44	32762	20.01	-1
44	32912	20.11	-1
44	33062	20.21	-1
44	33212	20.31	-1
44	33362	20.41	-1
44	33512	20.51	-1
44	33662	20.61	-1
44	33812	20.71	-1
44	33962	20.81	-1
44	34112	20.91	-1
44	34266	21.01	-1
44	34416	21.11	-1
44	34566	21.21	-1
44	34716	21.31	-1
44	34866	21.41	-1
44	35016	21.51	-1
44	35166	21.61	-1
44	35316	21.71	-1
44	35466	21.81	-1
44	35616	21.91	-1
44	35770	22.01	-1
44	35920	22.11	-1
44	36070	22.21	-1
44	36220	22.31	-1
44	36370	22.41	-1
44	36520	22.51	-1
44	36670	22.61	-1
44	36820	22.71	-1
44	36970	22.81	-1
44	37120	22.91	-1
44	37274	23.01	-1
44	37424	23.11	-1
44	37574	23.21	-1
44	37724	23.31	-1
44	37874	23.41	-1
44	38024	23.51	-1
44	38174	23.61	-1
44	38324	23.71	-1
44	38474	23.81	-1
44	38624	23.91	-1
44	38778	24.01	-1
44	38928	24.11	-1
44	39078	24.21	-1
44	39228	24.31	-1
44	39378	24.41	-1
44	39528	24.51	-1
44	39678	24.61	-1
44	39828	24.71	-1
44	39978	24.81	-1
44	40128	24.91	-1
44	40282	25.01	-1
44	40432	25.11	-1
44	40582	25.21	-1
44	40732	25.31	-1
44	40882	25.41	-1
44	41032	25.51	-1
44	41182	25.61	-1
44	41333	25.71	-1
44	41483	25.81	-1
44	41633	25.91	-1
44	41787	26.01	-1
44	41937	26.11	-1
44	42087	26.21	-1
44	42237	26.31	-1
44	42387	26.41	-1
44	42537	26.51	-1
44	42687	26.61	-1
44	42837	26.71	-1
44	42987	26.81	-1
44	43137	26.91	-1
44	43291	27.01	-1
44	43441	27.11	-1
44	43591	27.21	-1
44	43741	27.31	-1
44	43891	27.41	-1
44	44041	27.51	-1
44	44191	27.61	-1
44	44341	27.71	-1
44	44491	27.81	-1
44	44641	27.91	-1
44	44795	28.01	-1
44	44945	28.11	-1
44	45095	28.21	-1
44	45245	28.31	-1
44	45395	28.41	-1
44	45545	28.51	-1
44	45695	28.61	-1
44	45845	28.71	-1
44	45995	28.81	-1
44	46145	28.91	-1
44	46299	29.01	-1
44	46449	29.11	-1
44	46599	29.21	-1
44	46749	29.31	-1
44	46899	29.41	-1
44	47049	29.51	-1
44	47199	29.61	-1
44	47349	29.71	-1
44	47499	29.81	-1
44	47649	29.91	-1
46	26	0.21	3
46	176	0.31	3
46	326	0.41	3
46	476	0.51	3
46	626	0.61	3
46	776	0.71	3
46	926	0.81	3
46	1076	0.91	3
46	1230	1.01	3
46	1381	1.11	3
46	1532	1.21	3
46	1683	1.31	3
46	2046	1.41	3
46	2196	1.51	3
46	2346	1.61	3
46	2496	1.71	3
46	2646	1.81	3
46	2796	1.91	3
46	2950	2.01	3
46	3100	2.11	3
46	3250	2.21	3
46	3400	2.31	3
46	3763	2.41	3
46	3914	2.51	3
46	4064	2.61	3
46	4214	2.71	3
46	4364	2.81	3
46	4514	2.91	3
46	4668	3.01	3
46	4818	3.11	3
46	4968	3.21	3
46	5118	3.31	3
46	5269	3.41	3
46	5676	3.51	3
46	5826	3.61	3
46	5976	3.71	3
46	6126	3.81	3
46	6276	3.91	3
46	6430	4.01	3
46	6580	4.11	3
46	6730	4.21	3
46	6880	4.31	3
46	7030	4.41	3
46	7393	4.51	3
46	7544	4.61	3
46	7694	4.71	3
46	7844	4.81	3
46	7994	4.91	3
46	8148	5.01	3
46	8298	5.11	3
46	8448	5.21	3
46	8598	5.31	3
46	8748	5.41	3
46	8899	5.51	3
46	9262	5.61	3
46	9412	5.71	3
46	9562	5.81	3
46	9712	5.91	3
46	9866	6.01	3
46	10016	6.11	3
46	10166	6.21	3
46	10316	6.31	3
46	10466	6.41	3
46	10616	6.51	3
46	11023	6.61	3
46	11174	6.71	3
46	11324	6.81	3
46	11474	6.91	3
46	11628	7.01	3
46	11778	7.11	3
46	11928	7.21	3
46	12078	7.31	3
46	12228	7.41	3
46	12378	7.51	3
46	12529	7.61	3
46	12892	7.71	3
46	13042	7.81	3
46	13192	7.91	3
46	13346	8.01	3
46	13496	8.11	3
46	13646	8.21	3
46	13796	8.31	3
46	13946	8.41	3
46	14096	8.51	3
46	14246	8.61	3
46	14609	8.71	3
46	14760	8.81	3
46	14910	8.91	3
46	15064	9.01	3
46	15214	9.11	3
46	15364	9.21	3
46	15514	9.31	3
46	15664	9.41	3
46	15814	9.51	3
46	15964	9.61	3
46	16115	9.71	3
46	16522	9.81	3
46	16672	9.91	3
46	16826	10.01	3
46	16976	10.11	3
46	17126	10.21	3
46	17276	10.31	3
46	17426	10.41	3
46	17576	10.51	3
46	17726	10.61	3
46	17876	10.71	3
46	18239	10.81	3
46	18390	10.91	3
46	18544	11.01	3
46	18694	11.11	3
46	18844	11.21	3
46	18994	11.31	3
46	19144	11.41	3
46	19294	11.51	3
46	19444	11.61	3
46	19594	11.71	3
46	19745	11.81	3
46	20108	11.91	3
46	20262	12.01	3
46	20412	12.11	3
46	20562	12.21	3
46	20712	12.31	3
46	20862	12.41	3
46	21012	12.51	3
46	21162	12.61	3
46	21312	12.71	3
46	21462	12.81	3
46	21845	12.91	3
46	22000	13.01	3
46	22150	13.11	3
46	22300	13.21	3
46	22450	13.31	3
46	22600	13.41	3
46	22750	13.51	3
46	22900	13.61	3
46	23050	13.71	3
46	23200	13.81	3
46	23351	13.91	3
46	23738	14.01	3
46	23888	14.11	3
46	24038	14.21	3
46	24188	14.31	3
46	24338	14.41	3
46	24488	14.51	3
46	24638	14.61	3
46	24788	14.71	3
46	24938	14.81	3
46	25088	14.91	3
46	25242	15.01	3
46	25392	15.11	3
46	25542	15.21	3
46	25692	15.31	3
46	25842	15.41	3
46	25992	15.51	3
46	26142	15.61	3
46	26292	15.71	3
46	26442	15.81	3
46	26592	15.91	3
46	26746	16.01	3
46	26896	16.11	3
46	27046	16.21	3
46	27196	16.31	3
46	27346	16.41	3
46	27496	16.51	3
46	27646	16.61	3
46	27796	16.71	3
46	27946	16.81	3
46	28096	16.91	3
46	28250	17.01	3
46	28400	17.11	3
46	28550	17.21	3
46	28700	17.31	3
46	28850	17.41	3
46	29000	17.51	3
46	29150	17.61	3
46	29300	17.71	3
46	29450	17.81	3
46	29600	17.91	3
46	29754	18.01	3
46	29904	18.11	3
46	30054	18.21	3
46	30204	18.31	3
46	30354	18.41	3
46	30504	18.51	3
46	30654	18.61	3
46	30804	18.71	3
46	30954	18.81	3
46	31104	18.91	3
46	31258	19.01	3
46	31408	19.11	3
46	31558	19.21	3
46	31708	19.31	3
46	31858	19.41	3
46	32008	19.51	3
46	32158	19.61	3
46	32308	19.71	3
46	32458	19.81	3
46	32608	19.91	3
46	32762	20.01	3
46	32912	20.11	3
46	33062	20.21	3
46	33212	20.31	3
46	33362	20.41	3
46	33512	20.51	3
46	33662	20.61	3
46	33812	20.71	3
46	33962	20.81	3
46	34112	20.91	3
46	34266	21.01	3
46	34416	21.11	3
46	34566	21.21	3
46	34716	21.31	3
46	34866	21.41	3
46	35016	21.51	3
46	35166	21.61	3
46	35316	21.71	3
46	35466	21.81	3
46	35616	21.91	3
46	35770	22.01	3
46	35920	22.11	3
46	36070	22.21	3
46	36220	22.31	3
46	36370	22.41	3
46	36520	22.51	3
46	36670	22.61	3
46	36820	22.71	3
46	36970	22.81	3
46	37120	22.91	3
46	37274	23.01	3
46	37424	23.11	3
46	37574	23.21	3
46	37724	23.31	3
46	37874	23.41	3
46	38024	23.51	3
46	38174	23.61	3
46	38324	23.71	3
46	38474	23.81	3
46	38624	23.91	3
46	38778	24.01	3
46	38928	24.11	3
46	39078	24.21	3
46	39228	24.31	3
46	39378	24.41	3
46	39528	24.51	3
46	39678	24.61	3
46	39828	24.71	3
46	39978	24.81	3
46	40128	24.91	3
46	40282	25.01	3
46	40432	25.11	3
46	40582	25.21	3
46	40732	25.31	3
46	40882	25.41	3
46	41032	25.51	3
46	41182	25.61	3
46	41333	25.71	3
46	41483	25.81	3
46	41633	25.91	3
46	41787	26.01	3
46	41937	26.11	3
46	42087	26.21	3
46	42237	26.31	3
46	42387	26.41	3
46	42537	26.51	3
46	42687	26.61	3
46	42837	26.71	3
46	42987	26.81	3
46	43137	26.91	3
46	43291	27.01	3
46	43441	27.11	3
46	43591	27.21	3
46	43741	27.31	3
46	43891	27.41	3
46	44041	27.51	3
46	44191	27.61	3
46	44341	27.71	3
46	44491	27.81	3
46	44641	27.91	3
46	44795	28.01	3
46	44945	28.11	3
46	45095	28.21	3
46	45245	28.31	3
46	45395	28.41	3
46	45545	28.51	3
46	45695	28.61	3
46	45845	28.71	3
46	45995	28.81	3
46	46145	28.91	3
46	46299	29.01	3
46	46449	29.11	3
46	46599	29.21	3
46	46749	29.31	3
46	46899	29.41	3
46	47049	29.51	3
46	47199	29.61	3
46	47349	29.71	3
46	47499	29.81	3
46	47649	29.91	3
67	1191	1	0
67	2911	2	0
67	4629	3	0
67	6391	4	0
67	8109	5	0
67	9827	6	0
67	11589	7	0
67	13307	8	0
67	15025	9	0
67	16787	10	0
67	18505	11	0
67	20223	12	0
67	21961	13	0
67	23699	14	0
67	25203	15	0
67	26707	16	0
67	28211	17	0
67	29715	18	0
67	31219	19	0
67	32723	20	0
67	34227	21	0
67	35731	22	0
67	37235	23	0
67	38739	24	0
67	40243	25	0
67	41748	26	0
67	43252	27	0
67	44756	28	0
67	46260	29	0
66	1191	1	0.009679
66	2911	2	0.01300575127
66	4629	3	0.013005484746
66	6391	4	0.013053235366
66	8109	5	0.013004991202
66	9827	6	0.013004748868
66	11589	7	0.013147508322
66	13307	8	0.013004269846
66	15025	9	0.01300403343
66	16787	10	0.013146798902
66	18505	11	0.013003566088
66	20223	12	0.01300333492
66	21961	13	0.013003106298
66	23699	14	0.013003126582
66	25203	15	0.01249
66	26707	16	0.01249
66	28211	17	0.01249
66	29715	18	0.01249
66	31219	19	0.01249
66	32723	20	0.01249
66	34227	21	0.01249
66	35731	22	0.01249
66	37235	23	0.01249
66	38739	24	0.01249
66	40243	25	0.01249
66	41748	26	0.01249
66	43252	27	0.01249
66	44756	28	0.01249
66	46260	29	0.01249
65	1191	1	3
65	2911	2	3
65	4629	3	3
65	6391	4	3
65	8109	5	3
65	9827	6	3
65	11589	7	3
65	13307	8	3
65	15025	9	3
65	16787	10	3
65	18505	11	3
65	20223	12	3
65	21961	13	3
65	23699	14	3
65	25203	15	3
65	26707	16	3
65	28211	17	3
65	29715	18	3
65	31219	19	3
65	32723	20	3
65	34227	21	3
65	35731	22	3
65	37235	23	3
65	38739	24	3
65	40243	25	3
65	41748	26	3
65	43252	27	3
65	44756	28	3
65	46260	29	3
19	15	0.13	2.4127542600128
19	16	0.14	2.4129263904758
19	17	0.15	2.4130950988391
19	18	0.16	2.4132604191343
19	19	0.17	2.41342238539
19	20	0.18	2.4135810316244
19	21	0.19	2.4137363918365
19	22	0.2	2.413888500006
19	27	0.21	2.414037390082
19	62	0.22	2.4141830959779
19	97	0.23	2.4143256515673
19	98	0.24	2.4144650906755
19	99	0.25	2.4146014470759
19	134	0.26	2.4147347544831
19	135	0.27	2.4148650465499
19	136	0.28	2.4149923568581
19	137	0.29	2.4151167189146
19	138	0.3	2.415238166151
19	177	0.31	2.4153567319105
19	212	0.32	2.4154724494477
19	247	0.33	2.4155853519246
19	248	0.34	2.4156954724056
19	249	0.35	2.415802843849
19	284	0.36	2.4159074991068
19	285	0.37	2.4160094709204
19	286	0.38	2.4161087919147
19	287	0.39	2.416205494592
19	288	0.4	2.4162996113336
19	327	0.41	2.4163911743907
19	362	0.42	2.4164802158833
19	397	0.43	2.4165667677954
19	398	0.44	2.4166508619721
19	399	0.45	2.4167325301153
19	434	0.46	2.4168118037819
19	435	0.47	2.4168887143782
19	436	0.48	2.416963293158
19	437	0.49	2.41703557122
19	438	0.5	2.4171055795031
19	477	0.51	2.4171733487865
19	512	0.52	2.4172389096821
19	547	0.53	2.4173022926346
19	548	0.54	2.4173635279213
19	549	0.55	2.4174226456451
19	584	0.56	2.4174796757324
19	585	0.57	2.4175346479349
19	586	0.58	2.4175875918219
19	587	0.59	2.4176385367807
19	588	0.6	2.4176875120161
19	627	0.61	2.4177345465446
19	662	0.62	2.4177796691945
19	697	0.63	2.4178229086055
19	698	0.64	2.4178642932216
19	699	0.65	2.4179038512955
19	734	0.66	2.4179416108822
19	735	0.67	2.4179775998393
19	736	0.68	2.418011845827
19	737	0.69	2.4180443763033
19	738	0.7	2.4180752185259
19	777	0.71	2.4181043995456
19	812	0.72	2.4181319462111
19	847	0.73	2.418157885166
19	848	0.74	2.4181822428441
19	849	0.75	2.4182050454725
19	884	0.76	2.4182263190668
19	885	0.77	2.4182460894358
19	886	0.78	2.4182643821753
19	887	0.79	2.4182812226668
19	888	0.8	2.4182966360831
19	927	0.81	2.4183106473794
19	962	0.82	2.4183232812993
19	997	0.83	2.4183345623686
19	998	0.84	2.4183445149
19	999	0.85	2.4183531629882
19	1034	0.86	2.418360530513
19	1035	0.87	2.4183666411349
19	1036	0.88	2.4183715182979
19	1037	0.89	2.4183751852291
19	1038	0.9	2.4183776649363
19	1077	0.91	2.4183789802104
19	1112	0.92	2.418379153621
19	1147	0.93	2.4183782075225
19	1148	0.94	2.4183761640477
19	1149	0.95	2.4183730451125
19	1184	0.96	2.4183688724128
19	1185	0.97	2.4183636674256
19	1186	0.98	2.4183574514095
19	1187	0.99	2.4183502454055
19	1192	1	2.4183420702361
19	1231	1.01	2.4183329465046
19	1266	1.02	2.4183228945968
19	1301	1.03	2.4183119346795
19	1302	1.04	2.4183000867048
19	1303	1.05	2.4182873704056
19	1338	1.06	2.4182738052998
19	1339	1.07	2.4182594106861
19	1340	1.08	2.4182442056511
19	1341	1.09	2.4182282090648
19	1342	1.1	2.4182114395808
19	1382	1.11	2.4181939156417
19	1417	1.12	2.4181756554734
19	1452	1.13	2.4181566770894
19	1453	1.14	2.4181369982922
19	1454	1.15	2.4181166366719
19	1489	1.16	2.4180956096087
19	1490	1.17	2.4180739342704
19	1491	1.18	2.4180516276161
19	1492	1.19	2.4180287063985
19	1493	1.2	2.4180051871583
19	1533	1.21	2.4179810862327
19	1568	1.22	2.4179564197498
19	1603	1.23	2.4179312036352
19	1604	1.24	2.4179054536073
19	1605	1.25	2.4178791851829
19	1640	1.26	2.4178524136758
19	1641	1.27	2.4178251541985
19	1642	1.28	2.4177974216617
19	1643	1.29	2.4177692307789
19	1644	1.3	2.4177405960616
19	1684	1.31	2.4177115318274
19	1931	1.32	2.4176820521943
19	1966	1.33	2.4176521710863
19	1967	1.34	2.4176219022339
19	1968	1.35	2.4175912591745
19	2004	1.36	2.4175602552521
19	2005	1.37	2.4175289036204
19	2006	1.38	2.4174972172426
19	2007	1.39	2.4174652088959
19	2008	1.4	2.4174328911667
19	2047	1.41	2.4174002764582
19	2082	1.42	2.4173673769889
19	2117	1.43	2.4173342047908
19	2118	1.44	2.417300771714
19	2119	1.45	2.4172670894295
19	2154	1.46	2.4172331694276
19	2155	1.47	2.4171990230195
19	2156	1.48	2.4171646613384
19	2157	1.49	2.4171300953428
19	2158	1.5	2.4170953358162
19	2197	1.51	2.417060393367
19	2232	1.52	2.4170252784345
19	2267	1.53	2.4169900012842
19	2268	1.54	2.4169545720125
19	2269	1.55	2.4169190005507
19	2304	1.56	2.4168832966594
19	2305	1.57	2.4168474699354
19	2306	1.58	2.4168115298122
19	2307	1.59	2.4167754855608
19	2308	1.6	2.4167393462886
19	2347	1.61	2.4167031209453
19	2382	1.62	2.416666818321
19	2417	1.63	2.4166304470478
19	2418	1.64	2.4165940156043
19	2419	1.65	2.416557532314
19	2454	1.66	2.4165210053451
19	2455	1.67	2.4164844427165
19	2456	1.68	2.4164478522963
19	2457	1.69	2.4164112418047
19	2458	1.7	2.4163746188122
19	2497	1.71	2.4163379907459
19	2532	1.72	2.4163013648862
19	2567	1.73	2.4162647483713
19	2568	1.74	2.4162281481985
19	2569	1.75	2.4161915712227
19	2604	1.76	2.416155024161
19	2605	1.77	2.416118513594
19	2606	1.78	2.416082045964
19	2607	1.79	2.4160456275799
19	2608	1.8	2.4160092646167
19	2647	1.81	2.4159729631173
19	2682	1.82	2.4159367289951
19	2717	1.83	2.415900568034
19	2718	1.84	2.4158644858887
19	2719	1.85	2.4158284880901
19	2754	1.86	2.415792580041
19	2755	1.87	2.4157567670237
19	2756	1.88	2.415721054198
19	2757	1.89	2.4156854466001
19	2758	1.9	2.4156499491497
19	2797	1.91	2.4156145666471
19	2832	1.92	2.4155793037762
19	2867	1.93	2.4155441651057
19	2868	1.94	2.4155091550907
19	2869	1.95	2.4154742780741
19	2904	1.96	2.4154395382853
19	2905	1.97	2.4154049398454
19	2906	1.98	2.4153704867682
19	2907	1.99	2.4153361829593
19	2912	2	2.4153020322177
19	2951	2.01	2.4152680382376
19	2986	2.02	2.4152342046125
19	3021	2.03	2.4152005348308
19	3022	2.04	2.4151670322833
19	3023	2.05	2.4151337002597
19	3058	2.06	2.4151005419523
19	3059	2.07	2.4150675604567
19	3060	2.08	2.4150347587723
19	3061	2.09	2.4150021398065
19	3062	2.1	2.414969706373
19	3101	2.11	2.4149374611922
19	3136	2.12	2.4149054068967
19	3171	2.13	2.4148735460298
19	3172	2.14	2.4148418810445
19	3173	2.15	2.41481041431
19	3208	2.16	2.4147791481096
19	3209	2.17	2.4147480846414
19	3210	2.18	2.4147172260204
19	3211	2.19	2.4146865742823
19	3212	2.2	2.4146561313811
19	3251	2.21	2.4146258991914
19	3286	2.22	2.414595879509
19	3321	2.23	2.4145660740534
19	3322	2.24	2.4145364844694
19	3323	2.25	2.4145071123255
19	3358	2.26	2.4144779591187
19	3359	2.27	2.4144490262708
19	3360	2.28	2.4144203151364
19	3361	2.29	2.4143918269967
19	3362	2.3	2.4143635630669
19	3401	2.31	2.4143355244918
19	3436	2.32	2.41430771235
19	3471	2.33	2.4142801276557
19	3472	2.34	2.4142527713598
19	3473	2.35	2.4142256443456
19	3509	2.36	2.4141987474379
19	3722	2.37	2.4141720813995
19	3723	2.38	2.4141456469316
19	3724	2.39	2.414119444678
19	3725	2.4	2.4140934752222
19	3765	2.41	2.4140677390918
19	3800	2.42	2.4140422367585
19	3835	2.43	2.4140169686395
19	3836	2.44	2.4139919350962
19	3837	2.45	2.4139671364382
19	3872	2.46	2.4139425729222
19	3873	2.47	2.413918244755
19	3874	2.48	2.4138941520928
19	3875	2.49	2.4138702950407
19	3876	2.5	2.4138466736577
19	3915	2.51	2.4138232879543
19	3950	2.52	2.4138001378952
19	3985	2.53	2.4137772233994
19	3986	2.54	2.4137545443413
19	3987	2.55	2.4137321005515
19	4022	2.56	2.4137098918172
19	4023	2.57	2.4136879178845
19	4024	2.58	2.4136661784581
19	4025	2.59	2.4136446732041
19	4026	2.6	2.4136234017457
19	4065	2.61	2.4136023636721
19	4100	2.62	2.413581558531
19	4135	2.63	2.4135609858346
19	4136	2.64	2.4135406450593
19	4137	2.65	2.4135205356461
19	4172	2.66	2.4135006570018
19	4173	2.67	2.4134810084991
19	4174	2.68	2.4134615894795
19	4175	2.69	2.4134423992502
19	4176	2.7	2.4134234370874
19	4215	2.71	2.4134047022388
19	4250	2.72	2.4133861939195
19	4285	2.73	2.4133679113178
19	4286	2.74	2.4133498535921
19	4287	2.75	2.4133320198756
19	4322	2.76	2.4133144092715
19	4323	2.77	2.4132970208577
19	4324	2.78	2.4132798536883
19	4325	2.79	2.4132629067918
19	4326	2.8	2.4132461791714
19	4365	2.81	2.4132296698078
19	4400	2.82	2.4132133776578
19	4435	2.83	2.4131973016587
19	4436	2.84	2.4131814407236
19	4437	2.85	2.4131657937449
19	4472	2.86	2.4131503595966
19	4473	2.87	2.4131351371306
19	4474	2.88	2.4131201251833
19	4475	2.89	2.4131053225688
19	4476	2.9	2.4130907280858
19	4515	2.91	2.4130763405153
19	4550	2.92	2.4130621586198
19	4585	2.93	2.4130481811497
19	4586	2.94	2.413034406836
19	4587	2.95	2.4130208343957
19	4622	2.96	2.4130074625323
19	4623	2.97	2.4129942899356
19	4624	2.98	2.4129813152816
19	4625	2.99	2.4129685372325
19	4630	3	2.4129559544385
19	4669	3.01	2.4129435655388
19	4704	3.02	2.4129313691605
19	4739	3.03	2.4129193639199
19	4740	3.04	2.4129075484238
19	4741	3.05	2.4128959212686
19	4776	3.06	2.4128844810409
19	4777	3.07	2.4128732263199
19	4778	3.08	2.4128621556737
19	4779	3.09	2.4128512676643
19	4780	3.1	2.4128405608455
19	4819	3.11	2.4128300337636
19	4854	3.12	2.4128196849583
19	4889	3.13	2.4128095129645
19	4890	3.14	2.4127995163092
19	4891	3.15	2.4127896935131
19	4926	3.16	2.4127800430947
19	4927	3.17	2.4127705635664
19	4928	3.18	2.412761253437
19	4929	3.19	2.4127521112089
19	4930	3.2	2.4127431353827
19	4969	3.21	2.412734324457
19	5004	3.22	2.4127256769252
19	5039	3.23	2.412717191279
19	5040	3.24	2.4127088660082
19	5041	3.25	2.4127006996003
19	5076	3.26	2.4126926905413
19	5077	3.27	2.4126848373177
19	5078	3.28	2.4126771384128
19	5079	3.29	2.412669592311
19	5080	3.3	2.4126621974945
19	5119	3.31	2.4126549524481
19	5154	3.32	2.412647855656
19	5189	3.33	2.4126409056019
19	5190	3.34	2.4126341007721
19	5191	3.35	2.4126274396524
19	5226	3.36	2.4126209207323
19	5227	3.37	2.4126145425011
19	5228	3.38	2.4126083034504
19	5229	3.39	2.4126022020757
19	5230	3.4	2.4125962368722
19	5270	3.41	2.4125904063403
19	5561	3.42	2.412584708983
19	5596	3.43	2.4125791433071
19	5597	3.44	2.4125737078206
19	5598	3.45	2.4125684010368
19	5634	3.46	2.4125632214729
19	5635	3.47	2.4125581676487
19	5636	3.48	2.4125532380907
19	5637	3.49	2.4125484313295
19	5638	3.5	2.4125437458997
19	5677	3.51	2.4125391803397
19	5712	3.52	2.4125347331949
19	5747	3.53	2.412530403016
19	5748	3.54	2.412526188358
19	5749	3.55	2.4125220877823
19	5784	3.56	2.4125180998576
19	5785	3.57	2.412514223155
19	5786	3.58	2.4125104562539
19	5787	3.59	2.4125067977408
19	5788	3.6	2.4125032462073
19	5827	3.61	2.4124998002523
19	5862	3.62	2.4124964584814
19	5897	3.63	2.4124932195073
19	5898	3.64	2.4124900819494
19	5899	3.65	2.4124870444342
19	5934	3.66	2.4124841055951
19	5935	3.67	2.4124812640738
19	5936	3.68	2.4124785185192
19	5937	3.69	2.4124758675883
19	5938	3.7	2.4124733099453
19	5977	3.71	2.4124708442627
19	6012	3.72	2.4124684692214
19	6047	3.73	2.4124661835092
19	6048	3.74	2.4124639858226
19	6049	3.75	2.4124618748663
19	6084	3.76	2.4124598493534
19	6085	3.77	2.4124579080071
19	6086	3.78	2.412456049556
19	6087	3.79	2.41245427274
19	6088	3.8	2.412452576306
19	6127	3.81	2.4124509590125
19	6162	3.82	2.4124494196233
19	6197	3.83	2.4124479569121
19	6198	3.84	2.4124465696642
19	6199	3.85	2.4124452566703
19	6234	3.86	2.4124440167324
19	6235	3.87	2.4124428486612
19	6236	3.88	2.4124417512771
19	6237	3.89	2.4124407234078
19	6238	3.9	2.4124397638936
19	6277	3.91	2.4124388715804
19	6312	3.92	2.4124380453272
19	6347	3.93	2.4124372839998
19	6348	3.94	2.412436586474
19	6349	3.95	2.4124359516371
19	6384	3.96	2.4124353783835
19	6385	3.97	2.4124348656172
19	6386	3.98	2.4124344122542
19	6387	3.99	2.412434017217
19	6392	4	2.4124336794414
19	6431	4.01	2.4124333978702
19	6466	4.02	2.4124331714559
19	6501	4.03	2.4124329991612
19	6502	4.04	2.412432879959
19	6503	4.05	2.4124328128317
19	6538	4.06	2.4124327967722
19	6539	4.07	2.4124328307816
19	6540	4.08	2.4124329138711
19	6541	4.09	2.412433045062
19	6542	4.1	2.4124332233854
19	6581	4.11	2.4124334478828
19	6616	4.12	2.4124337176052
19	6651	4.13	2.4124340316126
19	6652	4.14	2.4124343889747
19	6653	4.15	2.4124347887715
19	6688	4.16	2.4124352300929
19	6689	4.17	2.4124357120374
19	6690	4.18	2.4124362337148
19	6691	4.19	2.4124367942423
19	6692	4.2	2.41243739275
19	6731	4.21	2.4124380283751
19	6766	4.22	2.4124387002646
19	6801	4.23	2.412439407576
19	6802	4.24	2.4124401494765
19	6803	4.25	2.412440925142
19	6838	4.26	2.4124417337586
19	6839	4.27	2.4124425745208
19	6840	4.28	2.4124434466347
19	6841	4.29	2.4124443493135
19	6842	4.3	2.412445281782
19	6881	4.31	2.4124462432722
19	6916	4.32	2.4124472330275
19	6951	4.33	2.4124482502984
19	6952	4.34	2.4124492943473
19	6953	4.35	2.4124503644433
19	6988	4.36	2.4124514598674
19	6989	4.37	2.4124525799061
19	6990	4.38	2.412453723859
19	6991	4.39	2.4124548910314
19	6992	4.4	2.4124560807401
19	7031	4.41	2.4124572923091
19	7066	4.42	2.4124585250727
19	7101	4.43	2.4124597783734
19	7102	4.44	2.4124610515628
19	7103	4.45	2.4124623440023
19	7139	4.46	2.4124636550592
19	7352	4.47	2.4124649841123
19	7353	4.48	2.4124663305491
19	7354	4.49	2.4124676937628
19	7355	4.5	2.412469073158
19	7395	4.51	2.4124704681469
19	7430	4.52	2.4124718781516
19	7465	4.53	2.4124733025998
19	7466	4.54	2.4124747409281
19	7467	4.55	2.4124761925846
19	7502	4.56	2.4124776570216
19	7503	4.57	2.4124791337018
19	7504	4.58	2.4124806220947
19	7505	4.59	2.4124821216804
19	7506	4.6	2.4124836319444
19	7545	4.61	2.4124851523826
19	7580	4.62	2.4124866824949
19	7615	4.63	2.4124882217931
19	7616	4.64	2.4124897697961
19	7617	4.65	2.4124913260285
19	7652	4.66	2.4124928900238
19	7653	4.67	2.4124944613239
19	7654	4.68	2.4124960394768
19	7655	4.69	2.4124976240389
19	7656	4.7	2.412499214574
19	7695	4.71	2.4125008106516
19	7730	4.72	2.4125024118515
19	7765	4.73	2.4125040177592
19	7766	4.74	2.4125056279673
19	7767	4.75	2.4125072420758
19	7802	4.76	2.4125088596921
19	7803	4.77	2.4125104804304
19	7804	4.78	2.4125121039112
19	7805	4.79	2.412513729762
19	7806	4.8	2.4125153576174
19	7845	4.81	2.4125169871195
19	7880	4.82	2.4125186179177
19	7915	4.83	2.4125202496655
19	7916	4.84	2.4125218820237
19	7917	4.85	2.4125235146607
19	7952	4.86	2.4125251472517
19	7953	4.87	2.4125267794765
19	7954	4.88	2.4125284110235
19	7955	4.89	2.4125300415857
19	7956	4.9	2.4125316708616
19	7995	4.91	2.4125332985571
19	8030	4.92	2.4125349243854
19	8065	4.93	2.4125365480625
19	8066	4.94	2.4125381693133
19	8067	4.95	2.4125397878684
19	8102	4.96	2.4125414034612
19	8103	4.97	2.4125430158339
19	8104	4.98	2.4125446247348
19	8105	4.99	2.4125462299146
19	8110	5	2.4125478311332
19	8149	5.01	2.4125494281531
19	8184	5.02	2.4125510207442
19	8219	5.03	2.4125526086807
19	8220	5.04	2.4125541917412
19	8221	5.05	2.4125557697132
19	8256	5.06	2.4125573423853
19	8257	5.07	2.4125589095538
19	8258	5.08	2.412560471019
19	8259	5.09	2.4125620265873
19	8260	5.1	2.4125635760693
19	8299	5.11	2.41256511928
19	8334	5.12	2.4125666560403
19	8369	5.13	2.412568186174
19	8370	5.14	2.4125697095122
19	8371	5.15	2.4125712258888
19	8406	5.16	2.4125727351437
19	8407	5.17	2.4125742371196
19	8408	5.18	2.4125757316666
19	8409	5.19	2.4125772186361
19	8410	5.2	2.412578697884
19	8449	5.21	2.4125801692736
19	8484	5.22	2.4125816326694
19	8519	5.23	2.4125830879419
19	8520	5.24	2.4125845349646
19	8521	5.25	2.4125859736151
19	8556	5.26	2.4125874037758
19	8557	5.27	2.4125888253331
19	8558	5.28	2.4125902381766
19	8559	5.29	2.4125916422
19	8560	5.3	2.4125930373017
19	8599	5.31	2.4125944233828
19	8634	5.32	2.4125958003475
19	8669	5.33	2.4125971681057
19	8670	5.34	2.4125985265688
19	8671	5.35	2.4125998756526
19	8706	5.36	2.4126012152774
19	8707	5.37	2.4126025453663
19	8708	5.38	2.4126038658439
19	8709	5.39	2.4126051766406
19	8710	5.4	2.4126064776899
19	8749	5.41	2.4126077689266
19	8784	5.42	2.4126090502915
19	8819	5.43	2.4126103217252
19	8820	5.44	2.4126115831744
19	8821	5.45	2.4126128345857
19	8856	5.46	2.412614075913
19	8857	5.47	2.4126153071087
19	8858	5.48	2.4126165281313
19	8859	5.49	2.4126177389404
19	8860	5.5	2.4126189394989
19	8900	5.51	2.4126201297724
19	9147	5.52	2.4126213097281
19	9182	5.53	2.4126224793376
19	9183	5.54	2.4126236385753
19	9184	5.55	2.4126247874172
19	9220	5.56	2.4126259258408
19	9221	5.57	2.4126270538279
19	9222	5.58	2.4126281713619
19	9223	5.59	2.412629278429
19	9224	5.6	2.4126303750171
19	9263	5.61	2.4126314611152
19	9298	5.62	2.4126325367171
19	9333	5.63	2.4126336018194
19	9334	5.64	2.4126346564171
19	9335	5.65	2.4126357005098
19	9370	5.66	2.4126367340986
19	9371	5.67	2.4126377571874
19	9372	5.68	2.4126387697817
19	9373	5.69	2.4126397718868
19	9374	5.7	2.4126407635142
19	9413	5.71	2.4126417446738
19	9448	5.72	2.4126427153783
19	9483	5.73	2.4126436756422
19	9484	5.74	2.4126446254826
19	9485	5.75	2.4126455649184
19	9520	5.76	2.4126464939682
19	9521	5.77	2.4126474126539
19	9522	5.78	2.4126483209985
19	9523	5.79	2.4126492190269
19	9524	5.8	2.4126501067637
19	9563	5.81	2.412650984238
19	9598	5.82	2.4126518514789
19	9633	5.83	2.4126527085172
19	9634	5.84	2.4126535553848
19	9635	5.85	2.4126543921154
19	9670	5.86	2.4126552187426
19	9671	5.87	2.412656035303
19	9672	5.88	2.4126568418346
19	9673	5.89	2.4126576383755
19	9674	5.9	2.4126584249652
19	9713	5.91	2.4126592016449
19	9748	5.92	2.4126599684555
19	9783	5.93	2.412660725441
19	9784	5.94	2.4126614726456
19	9785	5.95	2.4126622101147
19	9820	5.96	2.4126629378939
19	9821	5.97	2.4126636560317
19	9822	5.98	2.4126643645751
19	9823	5.99	2.4126650635742
19	9828	6	2.412665753079
19	9867	6.01	2.4126664331395
19	9902	6.02	2.4126671038088
19	9937	6.03	2.4126677651384
19	9938	6.04	2.4126684171828
19	9939	6.05	2.4126690599967
19	9974	6.06	2.412669693633
19	9975	6.07	2.4126703181492
19	9976	6.08	2.4126709336001
19	9977	6.09	2.4126715400447
19	9978	6.1	2.4126721375389
19	10017	6.11	2.4126727261421
19	10052	6.12	2.4126733059131
19	10087	6.13	2.4126738769112
19	10088	6.14	2.4126744391969
19	10089	6.15	2.4126749928295
19	10124	6.16	2.412675537871
19	10125	6.17	2.4126760743836
19	10126	6.18	2.412676602428
19	10127	6.19	2.4126771220678
19	10128	6.2	2.4126776333653
19	10167	6.21	2.4126781363842
19	10202	6.22	2.4126786311881
19	10237	6.23	2.4126791178409
19	10238	6.24	2.4126795964063
19	10239	6.25	2.412680066951
19	10274	6.26	2.4126805295388
19	10275	6.27	2.4126809842352
19	10276	6.28	2.4126814311052
19	10277	6.29	2.4126818702145
19	10278	6.3	2.4126823016296
19	10317	6.31	2.4126827254177
19	10352	6.32	2.4126831416439
19	10387	6.33	2.4126835503753
19	10388	6.34	2.4126839516789
19	10389	6.35	2.4126843456214
19	10424	6.36	2.41268473227
19	10425	6.37	2.412685111693
19	10426	6.38	2.4126854839561
19	10427	6.39	2.4126858491278
19	10428	6.4	2.412686207275
19	10467	6.41	2.4126865584649
19	10502	6.42	2.4126869027647
19	10537	6.43	2.4126872402428
19	10538	6.44	2.4126875709665
19	10539	6.45	2.4126878950043
19	10574	6.46	2.4126882124221
19	10575	6.47	2.4126885232885
19	10576	6.48	2.4126888276707
19	10577	6.49	2.4126891256375
19	10578	6.5	2.4126894172547
19	10617	6.51	2.4126897025896
19	10652	6.52	2.4126899817095
19	10687	6.53	2.4126902546817
19	10688	6.54	2.4126905215736
19	10689	6.55	2.4126907824527
19	10725	6.56	2.4126910373848
19	10982	6.57	2.4126912864359
19	10983	6.58	2.4126915296735
19	10984	6.59	2.4126917671635
19	10985	6.6	2.412691998972
19	11025	6.61	2.412692225165
19	11060	6.62	2.4126924458086
19	11095	6.63	2.4126926609689
19	11096	6.64	2.4126928707105
19	11097	6.65	2.4126930750981
19	11132	6.66	2.4126932741963
19	11133	6.67	2.4126934680713
19	11134	6.68	2.4126936567863
19	11135	6.69	2.4126938404061
19	11136	6.7	2.412694018994
19	11175	6.71	2.4126941926148
19	11210	6.72	2.4126943613302
19	11245	6.73	2.4126945252036
19	11246	6.74	2.4126946842985
19	11247	6.75	2.4126948386781
19	11282	6.76	2.412694988403
19	11283	6.77	2.4126951335365
19	11284	6.78	2.4126952741392
19	11285	6.79	2.4126954102731
19	11286	6.8	2.4126955419986
19	11325	6.81	2.4126956693763
19	11360	6.82	2.4126957924669
19	11395	6.83	2.4126959113293
19	11396	6.84	2.4126960260243
19	11397	6.85	2.412696136611
19	11432	6.86	2.4126962431471
19	11433	6.87	2.4126963456918
19	11434	6.88	2.4126964443042
19	11435	6.89	2.4126965390407
19	11436	6.9	2.4126966299591
19	11475	6.91	2.4126967171171
19	11510	6.92	2.4126968005711
19	11545	6.93	2.412696880376
19	11546	6.94	2.4126969565896
19	11547	6.95	2.4126970292667
19	11582	6.96	2.4126970984625
19	11583	6.97	2.4126971642317
19	11584	6.98	2.4126972266279
19	11585	6.99	2.4126972857047
19	11590	7	2.4126973415169
19	11629	7.01	2.4126973941168
19	11664	7.02	2.4126974435577
19	11699	7.03	2.4126974898919
19	11700	7.04	2.4126975331701
19	11701	7.05	2.4126975734442
19	11736	7.06	2.4126976107665
19	11737	7.07	2.4126976451862
19	11738	7.08	2.4126976767541
19	11739	7.09	2.4126977055193
19	11740	7.1	2.4126977315311
19	11779	7.11	2.4126977548388
19	11814	7.12	2.4126977754903
19	11849	7.13	2.4126977935349
19	11850	7.14	2.4126978090189
19	11851	7.15	2.4126978219901
19	11886	7.16	2.4126978324951
19	11887	7.17	2.4126978405803
19	11888	7.18	2.4126978462905
19	11889	7.19	2.4126978496724
19	11890	7.2	2.4126978507707
19	11929	7.21	2.4126978496307
19	11964	7.22	2.4126978462957
19	11999	7.23	2.4126978408094
19	12000	7.24	2.4126978332154
19	12001	7.25	2.4126978235558
19	12036	7.26	2.4126978118726
19	12037	7.27	2.4126977982095
19	12038	7.28	2.4126977826073
19	12039	7.29	2.4126977651065
19	12040	7.3	2.4126977457479
19	12079	7.31	2.4126977245722
19	12114	7.32	2.4126977016187
19	12149	7.33	2.4126976769266
19	12150	7.34	2.4126976505353
19	12151	7.35	2.4126976224839
19	12186	7.36	2.4126975928089
19	12187	7.37	2.4126975615497
19	12188	7.38	2.4126975287424
19	12189	7.39	2.4126974944237
[...]
2	64838	55.23	931.55726268403
2	64839	55.24	931.69615168374
2	64840	55.25	931.83504068346
2	64859	55.26	931.97392968317
2	64860	55.27	932.11281868289
2	64861	55.28	932.2517076826
2	64862	55.29	932.39059668231
2	64863	55.3	932.52948568203
2	64866	55.31	932.66837468175
2	64867	55.32	932.80726368146
2	64886	55.33	932.94615268118
2	64887	55.34	933.0850416809
2	64888	55.35	933.22393068061
2	64907	55.36	933.36281968033
2	64908	55.37	933.50170868005
2	64909	55.38	933.64059767977
2	64910	55.39	933.77948667949
2	64911	55.4	933.91837567921
2	64914	55.41	934.05726467893
2	64915	55.42	934.19615367865
2	64934	55.43	934.33504267837
2	64935	55.44	934.47393167809
2	64936	55.45	934.61282067782
2	64955	55.46	934.75170967754
2	64956	55.47	934.89059867726
2	64957	55.48	935.02948767698
2	64958	55.49	935.16837667671
2	64959	55.5	935.30726567643
2	64962	55.51	935.44615467616
2	64963	55.52	935.58504367588
2	64982	55.53	935.72393267561
2	64983	55.54	935.86282167533
2	64984	55.55	936.00171067506
2	65003	55.56	936.14059967479
2	65004	55.57	936.27948867451
2	65005	55.58	936.41837767424
2	65006	55.59	936.55726667397
2	65007	55.6	936.6961556737
2	65010	55.61	936.83504467343
2	65011	55.62	936.97393367316
2	65030	55.63	937.11282267289
2	65031	55.64	937.25171167262
2	65032	55.65	937.39060067235
2	65051	55.66	937.52948967208
2	65052	55.67	937.66837867181
2	65053	55.68	937.80726767154
2	65054	55.69	937.94615667127
2	65055	55.7	938.08504567101
2	65058	55.71	938.22393467074
2	65059	55.72	938.36282367047
2	65078	55.73	938.50171267021
2	65079	55.74	938.64060166994
2	65080	55.75	938.77949066968
2	65099	55.76	938.91837966941
2	65100	55.77	939.05726866915
2	65101	55.78	939.19615766888
2	65102	55.79	939.33504666862
2	65103	55.8	939.47393566836
2	65106	55.81	939.61282466809
2	65107	55.82	939.75171366783
2	65126	55.83	939.89060266757
2	65127	55.84	940.02949166731
2	65128	55.85	940.16838066705
2	65147	55.86	940.30726966679
2	65148	55.87	940.44615866653
2	65149	55.88	940.58504766627
2	65150	55.89	940.72393666601
2	65151	55.9	940.86282566575
2	65154	55.91	941.00171466549
2	65155	55.92	941.14060366523
2	65174	55.93	941.27949266497
2	65175	55.94	941.41838166472
2	65176	55.95	941.55727066446
2	65195	55.96	941.6961596642
2	65196	55.97	941.83504866395
2	65197	55.98	941.97393766369
2	65198	55.99	942.11282666343
2	65201	56	942.25171566318
2	65204	56.01	942.39060466292
2	65205	56.02	942.52949366267
2	65224	56.03	942.66838266242
2	65225	56.04	942.80727166216
2	65226	56.05	942.94616066191
2	65245	56.06	943.08504966166
2	65246	56.07	943.2239386614
2	65247	56.08	943.36282766115
2	65248	56.09	943.5017166609
2	65249	56.1	943.64060566065
2	65252	56.11	943.7794946604
2	65253	56.12	943.91838366015
2	65272	56.13	944.0572726599
2	65273	56.14	944.19616165965
2	65274	56.15	944.3350506594
2	65293	56.16	944.47393965915
2	65294	56.17	944.6128286589
2	65295	56.18	944.75171765866
2	65296	56.19	944.89060665841
2	65297	56.2	945.02949565816
2	65300	56.21	945.16838465791
2	65301	56.22	945.30727365767
2	65320	56.23	945.44616265742
2	65321	56.24	945.58505165718
2	65322	56.25	945.72394065693
2	65341	56.26	945.86282965669
2	65342	56.27	946.00171865644
2	65343	56.28	946.1406076562
2	65344	56.29	946.27949665595
2	65345	56.3	946.41838565571
2	65348	56.31	946.55727465547
2	65349	56.32	946.69616365522
2	65368	56.33	946.83505265498
2	65369	56.34	946.97394165474
2	65370	56.35	947.1128306545
2	65389	56.36	947.25171965426
2	65390	56.37	947.39060865402
2	65391	56.38	947.52949765378
2	65392	56.39	947.66838665354
2	65393	56.4	947.8072756533
2	65396	56.41	947.94616465306
2	65397	56.42	948.08505365282
2	65416	56.43	948.22394265258
2	65417	56.44	948.36283165234
2	65418	56.45	948.5017206521
2	65437	56.46	948.64060965187
2	65438	56.47	948.77949865163
2	65439	56.48	948.91838765139
2	65440	56.49	949.05727665116
2	65441	56.5	949.19616565092
2	65444	56.51	949.33505465069
2	65445	56.52	949.47394365045
2	65464	56.53	949.61283265022
2	65465	56.54	949.75172164998
2	65466	56.55	949.89061064975
2	65485	56.56	950.02949964951
2	65486	56.57	950.16838864928
2	65487	56.58	950.30727764905
2	65488	56.59	950.44616664881
2	65489	56.6	950.58505564858
2	65492	56.61	950.72394464835
2	65493	56.62	950.86283364812
2	65512	56.63	951.00172264789
2	65513	56.64	951.14061164766
2	65514	56.65	951.27950064743
2	65533	56.66	951.4183896472
2	65534	56.67	951.55727864697
2	65535	56.68	951.69616764674
2	65536	56.69	951.83505664651
2	65537	56.7	951.97394564628
2	65540	56.71	952.11283464605
2	65541	56.72	952.25172364582
2	65560	56.73	952.3906126456
2	65561	56.74	952.52950164537
2	65562	56.75	952.66839064514
2	65581	56.76	952.80727964491
2	65582	56.77	952.94616864469
2	65583	56.78	953.08505764446
2	65584	56.79	953.22394664424
2	65585	56.8	953.36283564401
2	65588	56.81	953.50172464379
2	65589	56.82	953.64061364356
2	65608	56.83	953.77950264334
2	65609	56.84	953.91839164312
2	65610	56.85	954.05728064289
2	65629	56.86	954.19616964267
2	65630	56.87	954.33505864245
2	65631	56.88	954.47394764222
2	65632	56.89	954.612836642
2	65633	56.9	954.75172564178
2	65636	56.91	954.89061464156
2	65637	56.92	955.02950364134
2	65656	56.93	955.16839264112
2	65657	56.94	955.3072816409
2	65658	56.95	955.44617064068
2	65677	56.96	955.58505964046
2	65678	56.97	955.72394864024
2	65679	56.98	955.86283764002
2	65680	56.99	956.0017266398
2	65683	57	956.14061563958
2	65686	57.01	956.27950463937
2	65687	57.02	956.41839363915
2	65706	57.03	956.55728263893
2	65707	57.04	956.69617163871
2	65708	57.05	956.8350606385
2	65727	57.06	956.97394963828
2	65728	57.07	957.11283863806
2	65729	57.08	957.25172763785
2	65730	57.09	957.39061663763
2	65731	57.1	957.52950563742
2	65734	57.11	957.66839463721
2	65735	57.12	957.80728363699
2	65754	57.13	957.94617263678
2	65755	57.14	958.08506163656
2	65756	57.15	958.22395063635
2	65775	57.16	958.36283963614
2	65776	57.17	958.50172863593
2	65777	57.18	958.64061763571
2	65778	57.19	958.7795066355
2	65779	57.2	958.91839563529
2	65782	57.21	959.05728463508
2	65783	57.22	959.19617363487
2	65802	57.23	959.33506263466
2	65803	57.24	959.47395163445
2	65804	57.25	959.61284063424
2	65823	57.26	959.75172963403
2	65824	57.27	959.89061863382
2	65825	57.28	960.02950763361
2	65826	57.29	960.1683966334
2	65827	57.3	960.30728563319
2	65830	57.31	960.44617463299
2	65831	57.32	960.58506363278
2	65850	57.33	960.72395263257
2	65851	57.34	960.86284163236
2	65852	57.35	961.00173063216
2	65871	57.36	961.14061963195
2	65872	57.37	961.27950863174
2	65873	57.38	961.41839763154
2	65874	57.39	961.55728663133
2	65875	57.4	961.69617563113
2	65878	57.41	961.83506463092
2	65879	57.42	961.97395363072
2	65898	57.43	962.11284263052
2	65899	57.44	962.25173163031
2	65900	57.45	962.39062063011
2	65919	57.46	962.52950962991
2	65920	57.47	962.6683986297
2	65921	57.48	962.8072876295
2	65922	57.49	962.9461766293
2	65923	57.5	963.0850656291
2	65926	57.51	963.22395462889
2	65927	57.52	963.36284362869
2	65946	57.53	963.50173262849
2	65947	57.54	963.64062162829
2	65948	57.55	963.77951062809
2	65967	57.56	963.91839962789
2	65968	57.57	964.05728862769
2	65969	57.58	964.19617762749
2	65970	57.59	964.33506662729
2	65971	57.6	964.4739556271
2	65974	57.61	964.6128446269
2	65975	57.62	964.7517336267
2	65994	57.63	964.8906226265
2	65995	57.64	965.0295116263
2	65996	57.65	965.16840062611
2	66015	57.66	965.30728962591
2	66016	57.67	965.44617862571
2	66017	57.68	965.58506762552
2	66018	57.69	965.72395662532
2	66019	57.7	965.86284562513
2	66022	57.71	966.00173462493
2	66023	57.72	966.14062362474
2	66042	57.73	966.27951262454
2	66043	57.74	966.41840162435
2	66044	57.75	966.55729062415
2	66063	57.76	966.69617962396
2	66064	57.77	966.83506862377
2	66065	57.78	966.97395762357
2	66066	57.79	967.11284662338
2	66067	57.8	967.25173562319
2	66070	57.81	967.39062462299
2	66071	57.82	967.5295136228
2	66090	57.83	967.66840262261
2	66091	57.84	967.80729162242
2	66092	57.85	967.94618062223
2	66111	57.86	968.08506962204
2	66112	57.87	968.22395862185
2	66113	57.88	968.36284762166
2	66114	57.89	968.50173662147
2	66115	57.9	968.64062562128
2	66118	57.91	968.77951462109
2	66119	57.92	968.9184036209
2	66138	57.93	969.05729262071
2	66139	57.94	969.19618162052
2	66140	57.95	969.33507062033
2	66159	57.96	969.47395962015
2	66160	57.97	969.61284861996
2	66161	57.98	969.75173761977
2	66162	57.99	969.89062661958
2	66165	58	970.0295156194
2	66168	58.01	970.16840461921
2	66169	58.02	970.30729361903
2	66188	58.03	970.44618261884
2	66189	58.04	970.58507161865
2	66190	58.05	970.72396061847
2	66209	58.06	970.86284961828
2	66210	58.07	971.0017386181
2	66211	58.08	971.14062761791
2	66212	58.09	971.27951661773
2	66213	58.1	971.41840561755
2	66216	58.11	971.55729461736
2	66217	58.12	971.69618361718
2	66236	58.13	971.835072617
2	66237	58.14	971.97396161681
2	66238	58.15	972.11285061663
2	66257	58.16	972.25173961645
2	66258	58.17	972.39062861627
2	66259	58.18	972.52951761609
2	66260	58.19	972.66840661591
2	66261	58.2	972.80729561573
2	66264	58.21	972.94618461554
2	66265	58.22	973.08507361536
2	66284	58.23	973.22396261518
2	66285	58.24	973.362851615
2	66286	58.25	973.50174061482
2	66305	58.26	973.64062961465
2	66306	58.27	973.77951861447
2	66307	58.28	973.91840761429
2	66308	58.29	974.05729661411
2	66309	58.3	974.19618561393
2	66312	58.31	974.33507461375
2	66313	58.32	974.47396361358
2	66332	58.33	974.6128526134
2	66333	58.34	974.75174161322
2	66334	58.35	974.89063061304
2	66353	58.36	975.02951961287
2	66354	58.37	975.16840861269
2	66355	58.38	975.30729761252
2	66356	58.39	975.44618661234
2	66357	58.4	975.58507561217
2	66360	58.41	975.72396461199
2	66361	58.42	975.86285361182
2	66380	58.43	976.00174261164
2	66381	58.44	976.14063161147
2	66382	58.45	976.27952061129
2	66401	58.46	976.41840961112
2	66402	58.47	976.55729861095
2	66403	58.48	976.69618761077
2	66404	58.49	976.8350766106
2	66405	58.5	976.97396561043
2	66408	58.51	977.11285461025
2	66409	58.52	977.25174361008
2	66428	58.53	977.39063260991
2	66429	58.54	977.52952160974
2	66430	58.55	977.66841060957
2	66449	58.56	977.8072996094
2	66450	58.57	977.94618860923
2	66451	58.58	978.08507760906
2	66452	58.59	978.22396660889
2	66453	58.6	978.36285560872
2	66456	58.61	978.50174460855
2	66457	58.62	978.64063360838
2	66476	58.63	978.77952260821
2	66477	58.64	978.91841160804
2	66478	58.65	979.05730060787
2	66497	58.66	979.1961896077
2	66498	58.67	979.33507860753
2	66499	58.68	979.47396760736
2	66500	58.69	979.6128566072
2	66501	58.7	979.75174560703
2	66504	58.71	979.89063460686
2	66505	58.72	980.0295236067
2	66524	58.73	980.16841260653
2	66525	58.74	980.30730160636
2	66526	58.75	980.4461906062
2	66545	58.76	980.58507960603
2	66546	58.77	980.72396860587
2	66547	58.78	980.8628576057
2	66548	58.79	981.00174660554
2	66549	58.8	981.14063560537
2	66552	58.81	981.27952460521
2	66553	58.82	981.41841360504
2	66572	58.83	981.55730260488
2	66573	58.84	981.69619160471
2	66574	58.85	981.83508060455
2	66593	58.86	981.97396960439
2	66594	58.87	982.11285860422
2	66595	58.88	982.25174760406
2	66596	58.89	982.3906366039
2	66597	58.9	982.52952560374
2	66600	58.91	982.66841460358
2	66601	58.92	982.80730360341
2	66620	58.93	982.94619260325
2	66621	58.94	983.08508160309
2	66622	58.95	983.22397060293
2	66641	58.96	983.36285960277
2	66642	58.97	983.50174860261
2	66643	58.98	983.64063760245
2	66644	58.99	983.77952660229
2	66647	59	983.91841560213
2	66650	59.01	984.05730460197
2	66651	59.02	984.19619360181
2	66670	59.03	984.33508260165
2	66671	59.04	984.47397160149
2	66672	59.05	984.61286060133
2	66691	59.06	984.75174960118
2	66692	59.07	984.89063860102
2	66693	59.08	985.02952760086
2	66694	59.09	985.1684166007
2	66695	59.1	985.30730560055
2	66698	59.11	985.44619460039
2	66699	59.12	985.58508360023
2	66718	59.13	985.72397260008
2	66719	59.14	985.86286159992
2	66720	59.15	986.00175059976
2	66739	59.16	986.14063959961
2	66740	59.17	986.27952859945
2	66741	59.18	986.4184175993
2	66742	59.19	986.55730659914
2	66743	59.2	986.69619559899
2	66746	59.21	986.83508459883
2	66747	59.22	986.97397359868
2	66766	59.23	987.11286259852
2	66767	59.24	987.25175159837
2	66768	59.25	987.39064059822
2	66787	59.26	987.52952959806
2	66788	59.27	987.66841859791
2	66789	59.28	987.80730759776
2	66790	59.29	987.94619659761
2	66791	59.3	988.08508559745
2	66794	59.31	988.2239745973
2	66795	59.32	988.36286359715
2	66814	59.33	988.501752597
2	66815	59.34	988.64064159685
2	66816	59.35	988.77953059669
2	66835	59.36	988.91841959654
2	66836	59.37	989.05730859639
2	66837	59.38	989.19619759624
2	66838	59.39	989.33508659609
2	66839	59.4	989.47397559594
2	66842	59.41	989.61286459579
2	66843	59.42	989.75175359564
2	66862	59.43	989.89064259549
2	66863	59.44	990.02953159534
2	66864	59.45	990.1684205952
2	66883	59.46	990.30730959505
2	66884	59.47	990.4461985949
2	66885	59.48	990.58508759475
2	66886	59.49	990.7239765946
2	66887	59.5	990.86286559446
2	66890	59.51	991.00175459431
2	66891	59.52	991.14064359416
2	66910	59.53	991.27953259401
2	66911	59.54	991.41842159387
2	66912	59.55	991.55731059372
2	66931	59.56	991.69619959357
2	66932	59.57	991.83508859343
2	66933	59.58	991.97397759328
2	66934	59.59	992.11286659314
2	66935	59.6	992.25175559299
2	66938	59.61	992.39064459285
2	66939	59.62	992.5295335927
2	66958	59.63	992.66842259256
2	66959	59.64	992.80731159241
2	66960	59.65	992.94620059227
2	66979	59.66	993.08508959212
2	66980	59.67	993.22397859198
2	66981	59.68	993.36286759183
2	66982	59.69	993.50175659169
2	66983	59.7	993.64064559155
2	66986	59.71	993.77953459141
2	66987	59.72	993.91842359126
2	67006	59.73	994.05731259112
2	67007	59.74	994.19620159098
2	67008	59.75	994.33509059084
2	67027	59.76	994.47397959069
2	67028	59.77	994.61286859055
2	67029	59.78	994.75175759041
2	67030	59.79	994.89064659027
2	67031	59.8	995.02953559013
2	67034	59.81	995.16842458999
2	67035	59.82	995.30731358985
2	67054	59.83	995.44620258971
2	67055	59.84	995.58509158957
2	67056	59.85	995.72398058943
2	67075	59.86	995.86286958929
2	67076	59.87	996.00175858915
2	67077	59.88	996.14064758901
2	67078	59.89	996.27953658887
2	67079	59.9	996.41842558873
2	67082	59.91	996.55731458859
2	67083	59.92	996.69620358845
2	67102	59.93	996.83509258832
2	67103	59.94	996.97398158818
2	67104	59.95	997.11287058804
2	67123	59.96	997.2517595879
2	67124	59.97	997.39064858777
2	67125	59.98	997.52953758763
2	67126	59.99	997.66842658749
2	67129	60	997.80731558736
2	67132	60.01	997.94620458722
2	67133	60.02	998.08509358708
2	67152	60.03	998.22398258695
2	67153	60.04	998.36287158681
2	67154	60.05	998.50176058668
2	67173	60.06	998.64064958654
2	67174	60.07	998.77953858641
2	67175	60.08	998.91842758627
2	67176	60.09	999.05731658614
2	67177	60.1	999.196205586
2	67180	60.11	999.33509458587
2	67181	60.12	999.47398358573
2	67200	60.13	999.6128725856
2	67201	60.14	999.75176158547
2	67202	60.15	999.89065058533
2	67221	60.16	1000.0295395852
2	67222	60.17	1000.1684285851
2	67223	60.18	1000.3073175849
2	67224	60.19	1000.4462065848
2	67225	60.2	1000.5850955847
2	67228	60.21	1000.7239845845
2	67229	60.22	1000.8628735844
2	67248	60.23	1001.0017625843
2	67249	60.24	1001.1406515841
2	67250	60.25	1001.279540584
2	67269	60.26	1001.4184295839
2	67270	60.27	1001.5573185837
2	67271	60.28	1001.6962075836
2	67272	60.29	1001.8350965835
2	67273	60.3	1001.9739855834
2	67276	60.31	1002.1128745832
2	67277	60.32	1002.2517635831
2	67296	60.33	1002.390652583
2	67297	60.34	1002.5295415828
2	67298	60.35	1002.6684305827
2	67317	60.36	1002.8073195826
2	67318	60.37	1002.9462085824
2	67319	60.38	1003.0850975823
2	67320	60.39	1003.2239865822
2	67321	60.4	1003.3628755821
2	67324	60.41	1003.5017645819
2	67325	60.42	1003.6406535818
2	67344	60.43	1003.7795425817
2	67345	60.44	1003.9184315816
2	67346	60.45	1004.0573205814
2	67365	60.46	1004.1962095813
2	67366	60.47	1004.3350985812
2	67367	60.48	1004.473987581
2	67368	60.49	1004.6128765809
2	67369	60.5	1004.7517655808
2	67372	60.51	1004.8906545807
2	67373	60.52	1005.0295435805
2	67392	60.53	1005.1684325804
2	67393	60.54	1005.3073215803
2	67394	60.55	1005.4462105802
2	67413	60.56	1005.58509958
2	67414	60.57	1005.7239885799
2	67415	60.58	1005.8628775798
2	67416	60.59	1006.0017665797
2	67417	60.6	1006.1406555795
2	67420	60.61	1006.2795445794
2	67421	60.62	1006.4184335793
2	67440	60.63	1006.5573225792
2	67441	60.64	1006.696211579
2	67442	60.65	1006.8351005789
2	67461	60.66	1006.9739895788
2	67462	60.67	1007.1128785787
2	67463	60.68	1007.2517675786
2	67464	60.69	1007.3906565784
2	67465	60.7	1007.5295455783
2	67468	60.71	1007.6684345782
2	67469	60.72	1007.8073235781
2	67488	60.73	1007.9462125779
2	67489	60.74	1008.0851015778
2	67490	60.75	1008.2239905777
2	67509	60.76	1008.3628795776
2	67510	60.77	1008.5017685775
2	67511	60.78	1008.6406575773
2	67512	60.79	1008.7795465772
2	67513	60.8	1008.9184355771
2	67516	60.81	1009.057324577
2	67517	60.82	1009.1962135769
2	67536	60.83	1009.3351025767
2	67537	60.84	1009.4739915766
2	67538	60.85	1009.6128805765
2	67557	60.86	1009.7517695764
2	67558	60.87	1009.8906585763
2	67559	60.88	1010.0295475761
2	67560	60.89	1010.168436576
2	67561	60.9	1010.3073255759
2	67564	60.91	1010.4462145758
2	67565	60.92	1010.5851035757
2	67584	60.93	1010.7239925755
2	67585	60.94	1010.8628815754
2	67586	60.95	1011.0017705753
2	67605	60.96	1011.1406595752
2	67606	60.97	1011.2795485751
2	67607	60.98	1011.418437575
2	67608	60.99	1011.5573265748
2	67611	61	1011.6962155747
2	67614	61.01	1011.8351045746
2	67615	61.02	1011.9739935745
2	67634	61.03	1012.1128825744
2	67635	61.04	1012.2517715743
2	67636	61.05	1012.3906605741
2	67655	61.06	1012.529549574
2	67656	61.07	1012.6684385739
2	67657	61.08	1012.8073275738
2	67658	61.09	1012.9462165737
2	67659	61.1	1013.0851055736
2	67662	61.11	1013.2239945734
2	67663	61.12	1013.3628835733
2	67682	61.13	1013.5017725732
2	67683	61.14	1013.6406615731
2	67684	61.15	1013.779550573
2	67703	61.16	1013.9184395729
2	67704	61.17	1014.0573285728
2	67705	61.18	1014.1962175726
2	67706	61.19	1014.3351065725
2	67707	61.2	1014.4739955724
2	67710	61.21	1014.6128845723
2	67711	61.22	1014.7517735722
2	67730	61.23	1014.8906625721
2	67731	61.24	1015.029551572
2	67732	61.25	1015.1684405719
2	67751	61.26	1015.3073295717
2	67752	61.27	1015.4462185716
2	67753	61.28	1015.5851075715
2	67754	61.29	1015.7239965714
2	67755	61.3	1015.8628855713
2	67758	61.31	1016.0017745712
2	67759	61.32	1016.1406660221
2	67770	61.33	1016.2795647778
2	67771	61.34	1016.4184755972
2	67772	61.35	1016.5574031456
2	67773	61.36	1016.6963519969
2	67774	61.37	1016.8353266355
2	67775	61.38	1016.9743314577
2	67776	61.39	1017.1133707735
2	67777	61.4	1017.2524488086
2	67779	61.41	1017.3915697058
2	67780	61.42	1017.5307375265
2	67791	61.43	1017.6699562528
2	67792	61.44	1017.8092297883
2	67793	61.45	1017.9485619604
2	67794	61.46	1018.0879565212
2	67795	61.47	1018.2274171495
2	67796	61.48	1018.3669474518
2	67797	61.49	1018.5065509638
2	67798	61.5	1018.646231152
2	67800	61.51	1018.785991415
2	67801	61.52	1018.9258350845
2	67812	61.53	1019.0657654273
2	67813	61.54	1019.2057856456
2	67814	61.55	1019.3458988793
2	67815	61.56	1019.4861082064
2	67816	61.57	1019.6264166448
2	67817	61.58	1019.766827153
2	67818	61.59	1019.9073426316
2	67819	61.6	1020.0479659244
2	67821	61.61	1020.1886998192
2	67822	61.62	1020.3295470495
2	67833	61.63	1020.4705102949
2	67834	61.64	1020.6115921824
2	67835	61.65	1020.7527952879
2	67836	61.66	1020.8941221364
2	67837	61.67	1021.0355752036
2	67838	61.68	1021.1771569165
2	67839	61.69	1021.3188696547
2	67840	61.7	1021.4607157509
2	67842	61.71	1021.6026974923
2	67843	61.72	1021.7448171211
2	67854	61.73	1021.8870768356
2	67855	61.74	1022.029478791
2	67856	61.75	1022.1720251002
2	67857	61.76	1022.3147178347
2	67858	61.77	1022.4575590254
2	67859	61.78	1022.6005506634
2	67860	61.79	1022.7436947006
2	67861	61.8	1022.8869930508
2	67863	61.81	1023.0304475902
2	67864	61.82	1023.1740601582
2	67875	61.83	1023.3178325583
2	67876	61.84	1023.4617665583
2	67877	61.85	1023.6058638917
2	67878	61.86	1023.7501262577
2	67879	61.87	1023.8945553225
2	67880	61.88	1024.0391527193
2	67881	61.89	1024.1839200495
2	67882	61.9	1024.328858883
2	67884	61.91	1024.473970759
2	67885	61.92	1024.6192571865
2	67896	61.93	1024.7647196448

