version 3
run OvertakeNoGui-162-20241104-10:00:45-90808
attr configname OvertakeNoGui
attr datetime 20241104-10:00:45
attr datetimef 20241104-100045
attr experiment OvertakeNoGui
attr inifile omnetpp.ini
attr iterationvars "$leaderHeadway=1.2, $leaderSpeed=50, $controller=0, $pCSpeed=52, $pDeltaC=500"
attr iterationvarsd leaderHeadway=1.2/leaderSpeed=50/controller=0/pCSpeed=52/pDeltaC=500
attr iterationvarsf leaderHeadway=1.2,leaderSpeed=50,controller=0,pCSpeed=52,pDeltaC=500-
attr measurement "$leaderHeadway=1.2, $leaderSpeed=50, $controller=0, $pCSpeed=52, $pDeltaC=500"
attr network Overtake
attr processid 90808
attr repetition 0
attr replication #0
attr resultdir results
attr runnumber 162
attr seedset 0
itervar controller 0
itervar leaderHeadway 1.2
itervar leaderSpeed 50
itervar pCSpeed 52
itervar pDeltaC 500
config image-path ../../../../veins/images;../../images
config *.manager.command "\"sumo\""
config *.manager.ignoreGuiCommands true
config *.node[*].scenario_type "\"OvertakeScenario\""
config output-vector-file results/OvertakeNoGui_52_500_0.vec
config output-scalar-file results/OvertakeNoGui_52_500_0.sca
config cmdenv-express-mode false
config cmdenv-autoflush true
config cmdenv-status-frequency 10s
config num-rngs 6
config cmdenv-output-file log.txt
config cmdenv-redirect-output true
config network Overtake
config debug-on-errors true
config print-undisposed true
config *.playgroundSizeX 65000m
config *.playgroundSizeY 25000m
config *.playgroundSizeZ 50m
config sim-time-limit "360 s"
config *.annotations.draw false
config *.obstacles.debug false
config *.world.useTorus false
config *.world.use2D false
config *.manager.updateInterval 0.01s
config *.manager.host "\"localhost\""
config *.manager.moduleType "\"vtypeauto=org.car2x.plexe.PlatoonCar vtypehuman=0\""
config *.manager.moduleName "\"vtypeauto=node vtypehuman=0\""
config *.manager.moduleDisplayString "\"\""
config *.manager.autoShutdown true
config *.manager.margin 25
config *.manager.order -1
config *.connectionManager.sendDirect true
config *.connectionManager.maxInterfDist 2600m
config *.connectionManager.drawMaxIntfDist false
config *.**.nic.mac1609_4.useServiceChannel false
config *.**.nic.mac1609_4.txPower 100mW
config *.**.nic.mac1609_4.bitrate 6Mbps
config *.**.nic.mac1609_4.useAcks true
config *.**.nic.mac1609_4.ackErrorRate 0.0
config *.**.nic.mac1609_4.frameErrorRate 0.0
config *.**.nic.phy80211p.minPowerLevel -94dBm
config *.**.nic.phy80211p.maxTXPower 100mW
config *.**.nic.phy80211p.useNoiseFloor true
config *.**.nic.phy80211p.noiseFloor -95dBm
config *.**.nic.phy80211p.decider "xmldoc(\"config.xml\")"
config *.**.nic.phy80211p.analogueModels "xmldoc(\"config.xml\")"
config *.**.nic.phy80211p.usePropagationDelay true
config *.node[*].mobility.x 0
config *.node[*].mobility.y 0
config *.node[*].mobility.z 1.895
config *.shockwave[*].mobility.x 0
config *.shockwave[*].mobility.y 0
config *.shockwave[*].mobility.z 1.895
config seed-set 0
config **.seed 0
config *.node[*].prot.rng-0 2
config *.node[*].appl.rng-0 3
config *.node[*].scenario.rng-0 4
config *.manager.configFile "\"./sumocfg/overtake.sumo.cfg\""
config *.manager.launchConfig "xmldoc(\"./sumocfg/overtake.launchd.xml\")"
config *.node[*].helper_type "\"PositionHelper\""
config *.node[*].scenario.caccC1 0.5
config *.node[*].scenario.caccXi 1
config *.node[*].scenario.caccOmegaN "0.2 Hz"
config *.node[*].scenario.caccSpacing "5 m"
config *.node[*].scenario.engineTau "0.5 s"
config *.node[*].scenario.ploegH "0.5 s"
config *.node[*].scenario.ploegKp 0.2
config *.node[*].scenario.ploegKd 0.7
config *.node[*].scenario.useRealisticEngine false
config *.node[*].scenario.targetController "\"CACC\""
config *.node[*].scenario.accHeadway "0.1 s"
config *.node[*].scenario.leaderHeadway "1.2 s"
config *.node[*].scenario.leaderSpeed "50 kmph"
config *.node[*].appl_type "\"OvertakeApp\""
config *.node[*].appl.*.scalar-recording true
config *.node[*].appl.*.vector-recording true
config *.node[*].appl.overtakeManeuver "\"OvertakeManeuver\""
config *.node[*].protocol_type "\"SimplePlatooningBeaconing\""
config *.node[*].prot.*.scalar-recording true
config *.node[*].prot.*.vector-recording true
config *.node[*].prot.beaconingInterval "0.1 s"
config *.node[*].prot.priority 4
config *.node[*].prot.packetSize 200
config *.node[*].prot.useControllerAcceleration true
config **.traffic_type "\"OvertakeTrafficManager\""
config **.traffic.platoonInsertTime "0.1 s"
config **.traffic.platooningVType "\"vtypeauto\""
config **.numericController 0
config **.traffic.platoonInsertDistance 5m
config **.traffic.platoonInsertHeadway 0s
config **.traffic.platoonLeaderHeadway 1.2s
config **.traffic.platoonASpeed 50kmph
config **.traffic.platoonBSpeed 100kmph
config **.traffic.platoonCSpeed 52kmph
config **.traffic.platoonSizeA 2
config **.traffic.platoonSizeB 1
config **.traffic.platoonSizeC 1
config **.traffic.initialPositionDeltaA 150
config **.traffic.initialPositionDeltaB 50
config **.traffic.initialPositionDeltaC 500
config **.traffic.controller "\"CACC\""
config **.scalar-recording true
config **.vector-recording true

vector 0 Overtake.node[0].mobility posx ETV
vector 1 Overtake.node[0].mobility posy ETV
vector 2 Overtake.node[1].mobility posx ETV
vector 3 Overtake.node[1].mobility posy ETV
vector 4 Overtake.node[2].mobility posx ETV
vector 5 Overtake.node[2].mobility posy ETV
vector 6 Overtake.node[3].mobility posx ETV
vector 7 Overtake.node[3].mobility posy ETV
vector 8 Overtake.node[0].mobility speed ETV
vector 9 Overtake.node[1].mobility speed ETV
vector 10 Overtake.node[2].mobility speed ETV
vector 11 Overtake.node[3].mobility speed ETV
vector 12 Overtake.node[0].mobility acceleration ETV
vector 13 Overtake.node[0].mobility co2emission ETV
vector 14 Overtake.node[1].mobility acceleration ETV
vector 15 Overtake.node[1].mobility co2emission ETV
vector 16 Overtake.node[2].mobility acceleration ETV
vector 17 Overtake.node[2].mobility co2emission ETV
vector 18 Overtake.node[3].mobility acceleration ETV
vector 19 Overtake.node[3].mobility co2emission ETV
vector 20 Overtake.node[0].appl distance ETV
vector 21 Overtake.node[0].appl relativeSpeed ETV
vector 22 Overtake.node[0].appl nodeId ETV
vector 23 Overtake.node[0].appl acceleration ETV
vector 24 Overtake.node[0].appl controllerAcceleration ETV
vector 25 Overtake.node[0].appl speed ETV
vector 26 Overtake.node[0].appl posx ETV
vector 27 Overtake.node[0].appl posy ETV
vector 28 Overtake.node[1].appl distance ETV
vector 29 Overtake.node[1].appl relativeSpeed ETV
vector 30 Overtake.node[1].appl nodeId ETV
vector 31 Overtake.node[1].appl acceleration ETV
vector 32 Overtake.node[1].appl controllerAcceleration ETV
vector 33 Overtake.node[1].appl speed ETV
vector 34 Overtake.node[1].appl posx ETV
vector 35 Overtake.node[1].appl posy ETV
vector 36 Overtake.node[2].appl distance ETV
vector 37 Overtake.node[2].appl relativeSpeed ETV
vector 38 Overtake.node[2].appl nodeId ETV
vector 39 Overtake.node[2].appl acceleration ETV
vector 40 Overtake.node[2].appl controllerAcceleration ETV
vector 41 Overtake.node[2].appl speed ETV
vector 42 Overtake.node[2].appl posx ETV
vector 43 Overtake.node[2].appl posy ETV
vector 44 Overtake.node[3].appl distance ETV
vector 45 Overtake.node[3].appl relativeSpeed ETV
vector 46 Overtake.node[3].appl nodeId ETV
vector 47 Overtake.node[3].appl acceleration ETV
vector 48 Overtake.node[3].appl controllerAcceleration ETV
vector 49 Overtake.node[3].appl speed ETV
vector 50 Overtake.node[3].appl posx ETV
vector 51 Overtake.node[3].appl posy ETV
vector 52 Overtake.node[1].prot leaderDelay ETV
vector 53 Overtake.node[1].prot leaderDelayId ETV
vector 54 Overtake.node[1].prot frontDelay ETV
vector 55 Overtake.node[1].prot frontDelayId ETV
vector 56 Overtake.node[0].prot nodeId ETV
vector 57 Overtake.node[0].prot busyTime ETV
vector 58 Overtake.node[0].prot collisions ETV
vector 59 Overtake.node[1].prot nodeId ETV
vector 60 Overtake.node[1].prot busyTime ETV
vector 61 Overtake.node[1].prot collisions ETV
vector 62 Overtake.node[2].prot nodeId ETV
vector 63 Overtake.node[2].prot busyTime ETV
vector 64 Overtake.node[2].prot collisions ETV
vector 65 Overtake.node[3].prot nodeId ETV
vector 66 Overtake.node[3].prot busyTime ETV
vector 67 Overtake.node[3].prot collisions ETV
40	25	0.21	-7.31626
40	175	0.31	-7.27191
40	325	0.41	-7.13253
40	475	0.51	-6.91644
40	625	0.61	-6.64
40	775	0.71	-6.31766
40	925	0.81	-5.96209
40	1075	0.91	-5.5843
40	1229	1.01	-5.19375
40	1380	1.11	-4.79846
40	1531	1.21	-4.40514
40	1682	1.31	-4.01936
40	2098	1.41	1.5
40	2248	1.51	1.5
40	2398	1.61	1.5
40	2548	1.71	1.5
40	2698	1.81	1.5
40	2848	1.91	1.5
40	3002	2.01	1.5
40	3152	2.11	1.5
40	3302	2.21	1.5
40	3452	2.31	1.5
40	3602	2.41	1.5
40	3752	2.51	1.5
40	3902	2.61	1.5
40	4052	2.71	1.5
40	4202	2.81	1.5
40	4352	2.91	1.5
40	4506	3.01	1.5
40	4656	3.11	1.5
40	4806	3.21	1.5
40	4956	3.31	1.5
40	5106	3.41	1.5
40	5256	3.51	1.5
40	5406	3.61	1.5
40	5556	3.71	1.5
40	5706	3.81	1.5
40	5856	3.91	1.5
40	6010	4.01	1.5
40	6160	4.11	1.5
40	6310	4.21	1.5
40	6460	4.31	1.5
40	6610	4.41	1.5
40	6760	4.51	1.5
40	6910	4.61	1.5
40	7060	4.71	1.5
40	7210	4.81	1.5
40	7360	4.91	1.5
40	7514	5.01	1.5
40	7664	5.11	1.5
40	7814	5.21	1.5
40	7964	5.31	1.5
40	8114	5.41	1.5
40	8264	5.51	1.5
40	8414	5.61	1.5
40	8564	5.71	1.5
40	8714	5.81	1.5
40	8864	5.91	1.41834
40	9018	6.01	1.27002
40	9168	6.11	1.12557
40	9318	6.21	0.986882
40	9468	6.31	0.855408
40	9618	6.41	0.732212
40	9768	6.51	0.618015
40	9918	6.61	0.513249
40	10068	6.71	0.418099
40	10218	6.81	0.332544
40	10368	6.91	0.256395
40	10522	7.01	0.189327
40	10672	7.11	0.130913
40	10822	7.21	0.0806441
40	10972	7.31	0.0379601
40	11122	7.41	0.00226353
40	11272	7.51	-0.0270607
40	11422	7.61	-0.0506314
40	11572	7.71	-0.0690595
40	11722	7.81	-0.0829383
40	11872	7.91	-0.0928362
40	12026	8.01	-0.0992909
40	12176	8.11	-0.102805
40	12326	8.21	-0.103844
40	12476	8.31	-0.102834
40	12626	8.41	-0.100161
40	12776	8.51	-0.0961712
40	12926	8.61	-0.0911736
40	13076	8.71	-0.0854386
40	13226	8.81	-0.0792014
40	13376	8.91	-0.0726642
40	13530	9.01	-0.0659982
40	13680	9.11	-0.0593459
40	13830	9.21	-0.0528244
40	13980	9.31	-0.046527
40	14130	9.41	-0.0405264
40	14280	9.51	-0.034877
40	14430	9.61	-0.0296169
40	14580	9.71	-0.0247707
40	14730	9.81	-0.0203507
40	14880	9.91	-0.0163599
40	15034	10.01	-0.0127925
40	15184	10.11	-0.00963662
40	15334	10.21	-0.00687483
40	15484	10.31	-0.0044859
40	15634	10.41	-0.00244569
40	15784	10.51	-0.000728138
40	15934	10.61	0.000693912
40	16084	10.71	0.00184804
40	16234	10.81	0.00276168
40	16384	10.91	0.00346166
40	16538	11.01	0.00397379
40	16688	11.11	0.00432264
40	16838	11.21	0.0045313
40	16988	11.31	0.00462119
40	17139	11.41	0.00461205
40	17289	11.51	0.00452183
40	17439	11.61	0.00436672
40	17589	11.71	0.00416115
40	17739	11.81	0.00391788
40	17890	11.91	0.00364804
40	18044	12.01	0.00336125
40	18194	12.11	0.00306569
40	18344	12.21	0.00276825
40	18494	12.31	0.00247459
40	18644	12.41	0.0021893
40	18794	12.51	0.001916
40	18944	12.61	0.00165743
40	19094	12.71	0.00141559
40	19244	12.81	0.0011918
40	19394	12.91	0.000986846
40	19548	13.01	0.00080101
40	19698	13.11	0.000634192
40	19848	13.21	0.000485969
40	19998	13.31	0.000355658
40	20148	13.41	0.000242378
40	20298	13.51	0.000145102
40	20448	13.61	6.26998e-05
40	20598	13.71	-6.02366e-06
40	20748	13.81	-6.22928e-05
40	20898	13.91	-0.000107336
40	21052	14.01	-0.000142362
40	21202	14.11	-0.000168541
40	21352	14.21	-0.000186995
40	21502	14.31	-0.00019878
40	21652	14.41	-0.000204882
40	21802	14.51	-0.000206213
40	21952	14.61	-0.000203607
40	22102	14.71	-0.000197816
40	22252	14.81	-0.000189518
40	22402	14.91	-0.000179312
40	22556	15.01	-0.000167723
40	22706	15.11	-0.000155208
40	22856	15.21	-0.000142157
40	23006	15.31	-0.000128902
40	23156	15.41	-0.000115715
40	23306	15.51	-0.000102822
40	23456	15.61	-9.04017e-05
40	23606	15.71	-7.85908e-05
40	23756	15.81	-6.74923e-05
40	23906	15.91	-5.7177e-05
40	24060	16.01	-4.76894e-05
40	24210	16.11	-3.90509e-05
40	24360	16.21	-3.12639e-05
40	24510	16.31	-2.43152e-05
40	24660	16.41	-1.81786e-05
40	24810	16.51	-1.28185e-05
40	24960	16.61	-8.19139e-06
40	25110	16.71	-4.24864e-06
40	25260	16.81	-9.38006e-07
40	25410	16.91	1.79469e-06
40	25564	17.01	4.00426e-06
40	25714	17.11	5.74506e-06
40	25864	17.21	7.07008e-06
40	26014	17.31	8.03025e-06
40	26164	17.41	8.67389e-06
40	26314	17.51	9.04633e-06
40	26464	17.61	9.18961e-06
40	26614	17.71	9.14232e-06
40	26764	17.81	8.93955e-06
40	26914	17.91	8.61287e-06
40	27068	18.01	8.1904e-06
40	27218	18.11	7.69693e-06
40	27368	18.21	7.15406e-06
40	27518	18.31	6.5804e-06
40	27668	18.41	5.99178e-06
40	27818	18.51	5.40143e-06
40	27968	18.61	4.82026e-06
40	28118	18.71	4.25705e-06
40	28268	18.81	3.71866e-06
40	28418	18.91	3.2103e-06
40	28572	19.01	2.73569e-06
40	28722	19.11	2.29727e-06
40	28872	19.21	1.89641e-06
40	29022	19.31	1.53356e-06
40	29172	19.41	1.20838e-06
40	29322	19.51	9.19955e-07
40	29472	19.61	6.66842e-07
40	29622	19.71	4.47242e-07
40	29772	19.81	2.59071e-07
40	29922	19.91	1.00058e-07
40	30076	20.01	-3.21819e-08
40	30226	20.11	-1.40087e-07
40	30376	20.21	-2.26095e-07
40	30526	20.31	-2.92596e-07
40	30676	20.41	-3.41902e-07
40	30826	20.51	-3.76218e-07
40	30976	20.61	-3.97621e-07
40	31126	20.71	-4.08047e-07
40	31276	20.81	-4.09282e-07
40	31426	20.91	-4.02954e-07
40	31580	21.01	-3.90535e-07
40	31730	21.11	-3.73343e-07
40	31880	21.21	-3.52543e-07
40	32030	21.31	-3.29157e-07
40	32180	21.41	-3.04069e-07
40	32330	21.51	-2.78033e-07
40	32480	21.61	-2.51688e-07
40	32630	21.71	-2.25563e-07
40	32780	21.81	-2.00084e-07
40	32930	21.91	-1.75595e-07
40	33084	22.01	-1.52355e-07
40	33234	22.11	-1.30558e-07
40	33384	22.21	-1.10335e-07
40	33534	22.31	-9.17666e-08
40	33684	22.41	-7.48877e-08
40	33834	22.51	-5.96977e-08
40	33984	22.61	-4.61661e-08
40	34134	22.71	-3.42375e-08
40	34284	22.81	-2.38376e-08
40	34434	22.91	-1.48788e-08
40	34588	23.01	-7.2621e-09
40	34738	23.11	-8.83915e-10
40	34888	23.21	4.36451e-09
40	35038	23.31	8.59153e-09
40	35188	23.41	1.19051e-08
40	35338	23.51	1.44098e-08
40	35488	23.61	1.62061e-08
40	35638	23.71	1.73891e-08
40	35788	23.81	1.80478e-08
40	35938	23.91	1.82641e-08
40	36092	24.01	1.81142e-08
40	36242	24.11	1.76662e-08
40	36392	24.21	1.6982e-08
40	36542	24.31	1.61162e-08
40	36692	24.41	1.51164e-08
40	36842	24.51	1.40258e-08
40	36992	24.61	1.28789e-08
40	37142	24.71	1.17076e-08
40	37292	24.81	1.05363e-08
40	37442	24.91	9.38662e-09
40	37596	25.01	8.27498e-09
40	37746	25.11	7.21485e-09
40	37896	25.21	6.21547e-09
40	38046	25.31	5.28431e-09
40	38196	25.41	4.42562e-09
40	38346	25.51	3.64189e-09
40	38496	25.61	2.93348e-09
40	38646	25.71	2.30003e-09
40	38796	25.81	1.73905e-09
40	38946	25.91	1.24771e-09
40	39100	26.01	8.22098e-10
40	39250	26.11	4.583e-10
40	39400	26.21	1.51701e-10
40	39550	26.31	-1.02673e-10
40	39700	26.41	-3.09441e-10
40	39850	26.51	-4.73577e-10
40	40000	26.61	-5.99698e-10
40	40150	26.71	-6.92424e-10
40	40300	26.81	-7.56017e-10
40	40450	26.91	-7.94387e-10
40	40604	27.01	-8.11795e-10
40	40754	27.11	-8.1144e-10
40	40904	27.21	-7.96518e-10
40	41054	27.31	-7.70228e-10
40	41204	27.41	-7.34346e-10
40	41354	27.51	-6.92069e-10
40	41504	27.61	-6.45173e-10
40	41654	27.71	-5.94724e-10
40	41804	27.81	-5.42855e-10
40	41954	27.91	-4.9063e-10
40	42108	28.01	-4.39115e-10
40	42258	28.11	-3.88667e-10
40	42408	28.21	-3.4035e-10
40	42558	28.31	-2.94875e-10
40	42708	28.41	-2.51887e-10
40	42858	28.51	-2.12452e-10
40	43008	28.61	-1.76215e-10
40	43158	28.71	-1.43174e-10
40	43308	28.81	-1.13332e-10
40	43458	28.91	-8.66862e-11
40	43612	29.01	-6.32383e-11
40	43762	29.11	-4.29878e-11
40	43912	29.21	-2.55795e-11
40	44062	29.31	-1.10134e-11
40	44212	29.41	1.42109e-12
40	44362	29.51	1.13687e-11
40	44512	29.61	1.95399e-11
40	44662	29.71	2.59348e-11
40	44812	29.81	3.05533e-11
40	44962	29.91	3.37508e-11
40	45116	30.01	3.58824e-11
40	45266	30.11	3.69482e-11
40	45416	30.21	3.73035e-11
40	45566	30.31	3.6593e-11
40	45716	30.41	3.55271e-11
40	45866	30.51	3.41061e-11
40	46016	30.61	3.23297e-11
40	46166	30.71	3.01981e-11
40	46316	30.81	2.80664e-11
40	46466	30.91	2.59348e-11
40	46620	31.01	2.38032e-11
40	46770	31.11	2.13163e-11
40	46920	31.21	1.91847e-11
40	47070	31.31	1.7053e-11
40	47220	31.41	1.49214e-11
40	47370	31.51	1.27898e-11
40	47520	31.61	1.06581e-11
40	47670	31.71	8.88178e-12
40	47820	31.81	7.10543e-12
40	47970	31.91	5.68434e-12
40	48124	32.01	4.26326e-12
40	48274	32.11	2.84217e-12
40	48424	32.21	1.77636e-12
40	48574	32.31	7.10543e-13
40	48724	32.41	0
40	48874	32.51	-1.06581e-12
40	49024	32.61	-1.77636e-12
40	49174	32.71	-2.4869e-12
40	49324	32.81	-3.19744e-12
40	49474	32.91	-3.55271e-12
40	49628	33.01	-4.26326e-12
40	49778	33.11	-4.61853e-12
40	49928	33.21	-4.9738e-12
40	50078	33.31	-5.32907e-12
40	50228	33.41	-5.68434e-12
40	50378	33.51	-6.03961e-12
40	50528	33.61	-6.39488e-12
40	50678	33.71	-6.39488e-12
40	50828	33.81	-6.75016e-12
40	50978	33.91	-7.10543e-12
40	51132	34.01	-7.10543e-12
40	51282	34.11	-7.4607e-12
40	51432	34.21	-7.4607e-12
40	51582	34.31	-7.4607e-12
40	51732	34.41	-7.81597e-12
40	51882	34.51	-7.81597e-12
40	52032	34.61	-7.81597e-12
40	52182	34.71	-8.17124e-12
40	52332	34.81	-8.17124e-12
40	52482	34.91	-8.17124e-12
40	52636	35.01	-8.17124e-12
40	52786	35.11	-8.17124e-12
39	25	0.21	-1.19161
39	175	0.31	-2.28894
39	325	0.41	-3.17121
39	475	0.51	-3.86188
39	625	0.61	-4.38329
39	775	0.71	-4.75649
39	925	0.81	-5.00118
39	1075	0.91	-5.13563
39	1229	1.01	-5.17662
39	1380	1.11	-5.1395
39	1531	1.21	-5.03814
39	1682	1.31	-4.88502
39	2098	1.41	-4.29527
39	2248	1.51	-3.25414
39	2398	1.61	-2.40005
39	2548	1.71	-1.6994
39	2698	1.81	-1.12462
39	2848	1.91	-0.653106
39	3002	2.01	-0.266297
39	3152	2.11	0.0510214
39	3302	2.21	0.311333
39	3452	2.31	0.524879
39	3602	2.41	0.700061
39	3752	2.51	0.843771
39	3902	2.61	0.961664
39	4052	2.71	1.05838
39	4202	2.81	1.13772
39	4352	2.91	1.2028
39	4506	3.01	1.25619
39	4656	3.11	1.29999
39	4806	3.21	1.33592
39	4956	3.31	1.3654
39	5106	3.41	1.38958
39	5256	3.51	1.40942
39	5406	3.61	1.42569
39	5556	3.71	1.43904
39	5706	3.81	1.44999
39	5856	3.91	1.45898
39	6010	4.01	1.46635
39	6160	4.11	1.47239
39	6310	4.21	1.47735
39	6460	4.31	1.48142
39	6610	4.41	1.48476
39	6760	4.51	1.4875
39	6910	4.61	1.48974
39	7060	4.71	1.49159
39	7210	4.81	1.4931
39	7360	4.91	1.49434
39	7514	5.01	1.49535
39	7664	5.11	1.49619
39	7814	5.21	1.49687
39	7964	5.31	1.49744
39	8114	5.41	1.4979
39	8264	5.51	1.49827
39	8414	5.61	1.49858
39	8564	5.71	1.49884
39	8714	5.81	1.49905
39	8864	5.91	1.49417
39	9018	6.01	1.46541
39	9168	6.11	1.41554
39	9318	6.21	1.34924
39	9468	6.31	1.27065
39	9618	6.41	1.18339
39	9768	6.51	1.09058
39	9918	6.61	0.994885
39	10068	6.71	0.898536
39	10218	6.81	0.80338
39	10368	6.91	0.710911
39	10522	7.01	0.622302
39	10672	7.11	0.538451
39	10822	7.21	0.460006
39	10972	7.31	0.387404
39	11122	7.41	0.320896
39	11272	7.51	0.26058
39	11422	7.61	0.206427
39	11572	7.71	0.1583
39	11722	7.81	0.11598
39	11872	7.91	0.0791828
39	12026	8.01	0.0475759
39	12176	8.11	0.0207939
39	12326	8.21	-0.00154957
39	12476	8.31	-0.0198512
39	12626	8.41	-0.0345089
39	12776	8.51	-0.0459144
39	12926	8.61	-0.0544474
39	13076	8.71	-0.0604708
39	13226	8.81	-0.0643275
39	13376	8.91	-0.0663376
39	13530	9.01	-0.0667967
39	13680	9.11	-0.0659753
39	13830	9.21	-0.0641182
39	13980	9.31	-0.0614446
39	14130	9.41	-0.0581493
39	14280	9.51	-0.0544031
39	14430	9.61	-0.0503541
39	14580	9.71	-0.0461294
39	14730	9.81	-0.0418363
39	14880	9.91	-0.037564
39	15034	10.01	-0.0333856
39	15184	10.11	-0.029359
39	15334	10.21	-0.0255292
39	15484	10.31	-0.0219296
39	15634	10.41	-0.0185833
39	15784	10.51	-0.0155049
39	15934	10.61	-0.0127014
39	16084	10.71	-0.0101738
39	16234	10.81	-0.00791774
39	16384	10.91	-0.005925
39	16538	11.01	-0.004184
39	16688	11.11	-0.00268073
39	16838	11.21	-0.00139944
39	16988	11.31	-0.000323233
39	17139	11.41	0.000565426
39	17289	11.51	0.00128429
39	17439	11.61	0.00185098
39	17589	11.71	0.00228266
39	17739	11.81	0.00259585
39	17890	11.91	0.00280622
39	18044	12.01	0.00292846
39	18194	12.11	0.00297621
39	18344	12.21	0.00296201
39	18494	12.31	0.00289723
39	18644	12.41	0.00279212
39	18794	12.51	0.00265582
39	18944	12.61	0.00249637
39	19094	12.71	0.00232079
39	19244	12.81	0.00213513
39	19394	12.91	0.00194453
39	19548	13.01	0.00175329
39	19698	13.11	0.00156496
39	19848	13.21	0.0013824
39	19998	13.31	0.00120784
39	20148	13.41	0.00104298
39	20298	13.51	0.000889024
39	20448	13.61	0.000746784
39	20598	13.71	0.000616703
39	20748	13.81	0.000498931
39	20898	13.91	0.000393368
39	21052	14.01	0.000299714
39	21202	14.11	0.000217509
39	21352	14.21	0.000146172
39	21502	14.31	8.50285e-05
39	21652	14.41	3.33446e-05
39	21802	14.51	-9.65228e-06
39	21952	14.61	-4.47515e-05
39	22102	14.71	-7.27425e-05
39	22252	14.81	-9.44002e-05
39	22402	14.91	-0.000110474
39	22556	15.01	-0.000121678
39	22706	15.11	-0.000128688
39	22856	15.21	-0.00013213
39	23006	15.31	-0.000132583
39	23156	15.41	-0.000130577
39	23306	15.51	-0.00012659
39	23456	15.61	-0.000121048
39	23606	15.71	-0.000114331
39	23756	15.81	-0.00010677
39	23906	15.91	-9.86524e-05
39	24060	16.01	-9.02236e-05
39	24210	16.11	-8.16909e-05
39	24360	16.21	-7.32259e-05
39	24510	16.31	-6.49682e-05
39	24660	16.41	-5.70288e-05
39	24810	16.51	-4.94929e-05
39	24960	16.61	-4.24231e-05
39	25110	16.71	-3.58625e-05
39	25260	16.81	-2.98373e-05
39	25410	16.91	-2.43594e-05
39	25564	17.01	-1.94287e-05
39	25714	17.11	-1.50353e-05
39	25864	17.21	-1.11616e-05
39	26014	17.31	-7.78356e-06
39	26164	17.41	-4.8728e-06
39	26314	17.51	-2.39756e-06
39	26464	17.61	-3.24003e-07
39	26614	17.71	1.38285e-06
39	26764	17.81	2.75826e-06
39	26914	17.91	3.8371e-06
39	27068	18.01	4.65331e-06
39	27218	18.11	5.23942e-06
39	27368	18.21	5.62626e-06
39	27518	18.31	5.8427e-06
39	27668	18.41	5.91545e-06
39	27818	18.51	5.86904e-06
39	27968	18.61	5.7257e-06
39	28118	18.71	5.50542e-06
39	28268	18.81	5.22596e-06
39	28418	18.91	4.90298e-06
39	28572	19.01	4.55008e-06
39	28722	19.11	4.17897e-06
39	28872	19.21	3.79958e-06
39	29022	19.31	3.4202e-06
39	29172	19.41	3.04763e-06
39	29322	19.51	2.68733e-06
39	29472	19.61	2.34356e-06
39	29622	19.71	2.01952e-06
39	29772	19.81	1.71747e-06
39	29922	19.91	1.43887e-06
39	30076	20.01	1.18452e-06
39	30226	20.11	9.54624e-07
39	30376	20.21	7.48903e-07
39	30526	20.31	5.66708e-07
39	30676	20.41	4.07081e-07
39	30826	20.51	2.68829e-07
39	30976	20.61	1.50593e-07
39	31126	20.71	5.08972e-08
39	31276	20.81	-3.18014e-08
39	31426	20.91	-9.9072e-08
39	31580	21.01	-1.52481e-07
39	31730	21.11	-1.93559e-07
39	31880	21.21	-2.23787e-07
39	32030	21.31	-2.4457e-07
39	32180	21.41	-2.57233e-07
39	32330	21.51	-2.63008e-07
39	32480	21.61	-2.63027e-07
39	32630	21.71	-2.58326e-07
39	32780	21.81	-2.49835e-07
39	32930	21.91	-2.38389e-07
39	33084	22.01	-2.24724e-07
39	33234	22.11	-2.09483e-07
39	33384	22.21	-1.93222e-07
39	33534	22.31	-1.76418e-07
39	33684	22.41	-1.59469e-07
39	33834	22.51	-1.42704e-07
39	33984	22.61	-1.26391e-07
39	34134	22.71	-1.10743e-07
39	34284	22.81	-9.59183e-08
39	34434	22.91	-8.20371e-08
39	34588	23.01	-6.91777e-08
39	34738	23.11	-5.73884e-08
39	34888	23.21	-4.66873e-08
39	35038	23.31	-3.70711e-08
39	35188	23.41	-2.85176e-08
39	35338	23.51	-2.09901e-08
39	35488	23.61	-1.44382e-08
39	35638	23.71	-8.80362e-09
39	35788	23.81	-4.02416e-09
39	35938	23.91	-3.09086e-11
39	36092	24.01	3.2454e-09
39	36242	24.11	5.87512e-09
39	36392	24.21	7.92681e-09
39	36542	24.31	9.46727e-09
39	36692	24.41	1.05615e-08
39	36842	24.51	1.12703e-08
39	36992	24.61	1.1649e-08
39	37142	24.71	1.17513e-08
39	37292	24.81	1.16248e-08
39	37442	24.91	1.13122e-08
39	37596	25.01	1.08521e-08
39	37746	25.11	1.02805e-08
39	37896	25.21	9.6275e-09
39	38046	25.31	8.91802e-09
39	38196	25.41	8.17693e-09
39	38346	25.51	7.42162e-09
39	38496	25.61	6.66951e-09
39	38646	25.71	5.93268e-09
39	38796	25.81	5.22178e-09
39	38946	25.91	4.54499e-09
39	39100	26.01	3.9087e-09
39	39250	26.11	3.3161e-09
39	39400	26.21	2.77041e-09
39	39550	26.31	2.27338e-09
39	39700	26.41	1.82467e-09
39	39850	26.51	1.42428e-09
39	40000	26.61	1.06972e-09
39	40150	26.71	7.59925e-10
39	40300	26.81	4.92406e-10
39	40450	26.91	2.63256e-10
39	40604	27.01	6.99885e-11
39	40754	27.11	-8.88178e-11
39	40904	27.21	-2.17426e-10
39	41054	27.31	-3.18678e-10
39	41204	27.41	-3.96128e-10
39	41354	27.51	-4.52616e-10
39	41504	27.61	-4.90985e-10
39	41654	27.71	-5.13722e-10
39	41804	27.81	-5.22604e-10
39	41954	27.91	-5.21183e-10
39	42108	28.01	-5.10525e-10
39	42258	28.11	-4.92406e-10
39	42408	28.21	-4.68958e-10
39	42558	28.31	-4.41247e-10
39	42708	28.41	-4.10338e-10
39	42858	28.51	-3.78364e-10
39	43008	28.61	-3.44968e-10
39	43158	28.71	-3.11928e-10
39	43308	28.81	-2.79954e-10
39	43458	28.91	-2.47979e-10
39	43612	29.01	-2.16005e-10
39	43762	29.11	-1.87228e-10
39	43912	29.21	-1.58806e-10
39	44062	29.31	-1.33937e-10
39	44212	29.41	-1.10489e-10
39	44362	29.51	-8.91731e-11
39	44512	29.61	-7.0699e-11
39	44662	29.71	-5.32907e-11
39	44812	29.81	-3.90799e-11
39	44962	29.91	-2.59348e-11
39	45116	30.01	-1.52767e-11
39	45266	30.11	-5.68434e-12
39	45416	30.21	1.42109e-12
39	45566	30.31	8.52651e-12
39	45716	30.41	1.27898e-11
39	45866	30.51	1.63425e-11
39	46016	30.61	1.98952e-11
39	46166	30.71	2.20268e-11
39	46316	30.81	2.20268e-11
39	46466	30.91	2.20268e-11
39	46620	31.01	2.20268e-11
39	46770	31.11	2.20268e-11
39	46920	31.21	2.20268e-11
39	47070	31.31	2.20268e-11
39	47220	31.41	2.20268e-11
39	47370	31.51	2.16716e-11
39	47520	31.61	1.95399e-11
39	47670	31.71	1.77636e-11
39	47820	31.81	1.59872e-11
39	47970	31.91	1.45661e-11
39	48124	32.01	1.3145e-11
39	48274	32.11	1.1724e-11
39	48424	32.21	1.06581e-11
39	48574	32.31	9.59233e-12
39	48724	32.41	8.88178e-12
39	48874	32.51	7.81597e-12
39	49024	32.61	7.10543e-12
39	49174	32.71	6.39488e-12
39	49324	32.81	5.68434e-12
39	49474	32.91	5.32907e-12
39	49628	33.01	4.61853e-12
39	49778	33.11	4.26326e-12
39	49928	33.21	3.90799e-12
39	50078	33.31	3.55271e-12
39	50228	33.41	3.19744e-12
39	50378	33.51	2.84217e-12
39	50528	33.61	2.4869e-12
39	50678	33.71	2.4869e-12
39	50828	33.81	2.13163e-12
39	50978	33.91	1.77636e-12
39	51132	34.01	1.77636e-12
39	51282	34.11	1.42109e-12
39	51432	34.21	1.42109e-12
39	51582	34.31	1.42109e-12
39	51732	34.41	1.06581e-12
39	51882	34.51	1.06581e-12
39	52032	34.61	1.06581e-12
39	52182	34.71	7.10543e-13
39	52332	34.81	7.10543e-13
39	52482	34.91	7.10543e-13
39	52636	35.01	7.10543e-13
39	52786	35.11	7.10543e-13
43	25	0.21	-1.6
43	175	0.31	-1.6
43	325	0.41	-1.6
43	475	0.51	-1.6
43	625	0.61	-1.6
43	775	0.71	-1.6
43	925	0.81	-1.6
43	1075	0.91	-1.6
43	1229	1.01	-1.6
43	1380	1.11	-1.6
43	1531	1.21	-1.6
43	1682	1.31	-1.6
43	2098	1.41	1.6
43	2248	1.51	1.6
43	2398	1.61	1.6
43	2548	1.71	1.6
43	2698	1.81	1.6
43	2848	1.91	1.6
43	3002	2.01	1.6
43	3152	2.11	1.6
43	3302	2.21	1.6
43	3452	2.31	1.6
43	3602	2.41	1.6
43	3752	2.51	1.6
43	3902	2.61	1.6
43	4052	2.71	1.6
43	4202	2.81	1.6
43	4352	2.91	1.6
43	4506	3.01	1.6
43	4656	3.11	1.6
43	4806	3.21	1.6
43	4956	3.31	1.6
43	5106	3.41	1.6
43	5256	3.51	1.6
43	5406	3.61	1.6
43	5556	3.71	1.6
43	5706	3.81	1.6
43	5856	3.91	1.6
43	6010	4.01	1.6
43	6160	4.11	1.6
43	6310	4.21	1.6
43	6460	4.31	1.6
43	6610	4.41	1.6
43	6760	4.51	1.6
43	6910	4.61	1.6
43	7060	4.71	1.6
43	7210	4.81	1.6
43	7360	4.91	1.6
43	7514	5.01	1.6
43	7664	5.11	1.6
43	7814	5.21	1.6
43	7964	5.31	1.6
43	8114	5.41	1.6
43	8264	5.51	1.6
43	8414	5.61	1.6
43	8564	5.71	1.6
43	8714	5.81	1.6
43	8864	5.91	1.6
43	9018	6.01	1.6
43	9168	6.11	1.6
43	9318	6.21	1.6
43	9468	6.31	1.6
43	9618	6.41	1.6
43	9768	6.51	1.6
43	9918	6.61	1.6
43	10068	6.71	1.6
43	10218	6.81	1.6
43	10368	6.91	1.6
43	10522	7.01	1.6
43	10672	7.11	1.6
43	10822	7.21	1.6
43	10972	7.31	1.6
43	11122	7.41	1.6
43	11272	7.51	1.6
43	11422	7.61	1.6
43	11572	7.71	1.6
43	11722	7.81	1.6
43	11872	7.91	1.6
43	12026	8.01	1.6
43	12176	8.11	1.6
43	12326	8.21	1.6
43	12476	8.31	1.6
43	12626	8.41	1.6
43	12776	8.51	1.6
43	12926	8.61	1.6
43	13076	8.71	1.6
43	13226	8.81	1.6
43	13376	8.91	1.6
43	13530	9.01	1.6
43	13680	9.11	1.6
43	13830	9.21	1.6
43	13980	9.31	1.6
43	14130	9.41	1.6
43	14280	9.51	1.6
43	14430	9.61	1.6
43	14580	9.71	1.6
43	14730	9.81	1.6
43	14880	9.91	1.6
43	15034	10.01	1.6
43	15184	10.11	1.6
43	15334	10.21	1.6
43	15484	10.31	1.6
43	15634	10.41	1.6
43	15784	10.51	1.6
43	15934	10.61	1.6
43	16084	10.71	1.6
43	16234	10.81	1.6
43	16384	10.91	1.6
43	16538	11.01	1.6
43	16688	11.11	1.6
43	16838	11.21	1.6
43	16988	11.31	1.6
43	17139	11.41	-1.6
43	17289	11.51	-1.6
43	17439	11.61	-1.6
43	17589	11.71	-1.6
43	17739	11.81	-1.6
43	17890	11.91	-1.6
43	18044	12.01	-1.6
43	18194	12.11	-1.6
43	18344	12.21	-1.6
43	18494	12.31	-1.6
43	18644	12.41	-1.6
43	18794	12.51	-1.6
43	18944	12.61	-1.6
43	19094	12.71	-1.6
43	19244	12.81	-1.6
43	19394	12.91	-1.6
43	19548	13.01	-1.6
43	19698	13.11	-1.6
43	19848	13.21	-1.6
43	19998	13.31	-1.6
43	20148	13.41	-1.6
43	20298	13.51	-1.6
43	20448	13.61	-1.6
43	20598	13.71	-1.6
43	20748	13.81	-1.6
43	20898	13.91	-1.6
43	21052	14.01	-1.6
43	21202	14.11	-1.6
43	21352	14.21	-1.6
43	21502	14.31	-1.6
43	21652	14.41	-1.6
43	21802	14.51	-1.6
43	21952	14.61	-1.6
43	22102	14.71	-1.6
43	22252	14.81	-1.6
43	22402	14.91	-1.6
43	22556	15.01	-1.6
43	22706	15.11	-1.6
43	22856	15.21	-1.6
43	23006	15.31	-1.6
43	23156	15.41	-1.6
43	23306	15.51	-1.6
43	23456	15.61	-1.6
43	23606	15.71	-1.6
43	23756	15.81	-1.6
43	23906	15.91	-1.6
43	24060	16.01	-1.6
43	24210	16.11	-1.6
43	24360	16.21	-1.6
43	24510	16.31	-1.6
43	24660	16.41	-1.6
43	24810	16.51	-1.6
43	24960	16.61	-1.6
43	25110	16.71	-1.6
43	25260	16.81	-1.6
43	25410	16.91	-1.6
43	25564	17.01	-1.6
43	25714	17.11	-1.6
43	25864	17.21	-1.6
43	26014	17.31	-1.6
43	26164	17.41	-1.6
43	26314	17.51	-1.6
43	26464	17.61	-1.6
43	26614	17.71	-1.6
43	26764	17.81	-1.6
43	26914	17.91	-1.6
43	27068	18.01	-1.6
43	27218	18.11	-1.6
43	27368	18.21	-1.6
43	27518	18.31	-1.6
43	27668	18.41	-1.6
43	27818	18.51	-1.6
43	27968	18.61	-1.6
43	28118	18.71	-1.6
43	28268	18.81	-1.6
43	28418	18.91	-1.6
43	28572	19.01	-1.6
43	28722	19.11	-1.6
43	28872	19.21	-1.6
43	29022	19.31	-1.6
43	29172	19.41	-1.6
43	29322	19.51	-1.6
43	29472	19.61	-1.6
43	29622	19.71	-1.6
43	29772	19.81	-1.6
43	29922	19.91	-1.6
43	30076	20.01	-1.6
43	30226	20.11	-1.6
43	30376	20.21	-1.6
43	30526	20.31	-1.6
43	30676	20.41	-1.6
43	30826	20.51	-1.6
43	30976	20.61	-1.6
43	31126	20.71	-1.6
43	31276	20.81	-1.6
43	31426	20.91	-1.6
43	31580	21.01	-1.6
43	31730	21.11	-1.6
43	31880	21.21	-1.6
43	32030	21.31	-1.6
43	32180	21.41	-1.6
43	32330	21.51	-1.6
43	32480	21.61	-1.6
43	32630	21.71	-1.6
43	32780	21.81	-1.6
43	32930	21.91	-1.6
43	33084	22.01	-1.6
43	33234	22.11	-1.6
43	33384	22.21	-1.6
43	33534	22.31	-1.6
43	33684	22.41	-1.6
43	33834	22.51	-1.6
43	33984	22.61	-1.6
43	34134	22.71	-1.6
43	34284	22.81	-1.6
43	34434	22.91	-1.6
43	34588	23.01	-1.6
43	34738	23.11	-1.6
43	34888	23.21	-1.6
43	35038	23.31	-1.6
43	35188	23.41	-1.6
43	35338	23.51	-1.6
43	35488	23.61	-1.6
43	35638	23.71	-1.6
43	35788	23.81	-1.6
43	35938	23.91	-1.6
43	36092	24.01	-1.6
43	36242	24.11	-1.6
43	36392	24.21	-1.6
43	36542	24.31	-1.6
43	36692	24.41	-1.6
43	36842	24.51	-1.6
43	36992	24.61	-1.6
43	37142	24.71	-1.6
43	37292	24.81	-1.6
43	37442	24.91	-1.6
43	37596	25.01	-1.6
43	37746	25.11	-1.6
43	37896	25.21	-1.6
43	38046	25.31	-1.6
43	38196	25.41	-1.6
43	38346	25.51	-1.6
43	38496	25.61	-1.6
43	38646	25.71	-1.6
43	38796	25.81	-1.6
43	38946	25.91	-1.6
43	39100	26.01	-1.6
43	39250	26.11	-1.6
43	39400	26.21	-1.6
43	39550	26.31	-1.6
43	39700	26.41	-1.6
43	39850	26.51	-1.6
43	40000	26.61	-1.6
43	40150	26.71	-1.6
43	40300	26.81	-1.6
43	40450	26.91	-1.6
43	40604	27.01	-1.6
43	40754	27.11	-1.6
43	40904	27.21	-1.6
43	41054	27.31	-1.6
43	41204	27.41	-1.6
43	41354	27.51	-1.6
43	41504	27.61	-1.6
43	41654	27.71	-1.6
43	41804	27.81	-1.6
43	41954	27.91	-1.6
43	42108	28.01	-1.6
43	42258	28.11	-1.6
43	42408	28.21	-1.6
43	42558	28.31	-1.6
43	42708	28.41	-1.6
43	42858	28.51	-1.6
43	43008	28.61	-1.6
43	43158	28.71	-1.6
43	43308	28.81	-1.6
43	43458	28.91	-1.6
43	43612	29.01	-1.6
43	43762	29.11	-1.6
43	43912	29.21	-1.6
43	44062	29.31	-1.6
43	44212	29.41	-1.6
43	44362	29.51	-1.6
43	44512	29.61	-1.6
43	44662	29.71	-1.6
43	44812	29.81	-1.6
43	44962	29.91	-1.6
43	45116	30.01	-1.6
43	45266	30.11	-1.6
43	45416	30.21	-1.6
43	45566	30.31	-1.6
43	45716	30.41	-1.6
43	45866	30.51	-1.6
43	46016	30.61	-1.6
43	46166	30.71	-1.6
43	46316	30.81	-1.6
43	46466	30.91	-1.6
43	46620	31.01	-1.6
43	46770	31.11	-1.6
43	46920	31.21	-1.6
43	47070	31.31	-1.6
43	47220	31.41	-1.6
43	47370	31.51	-1.6
43	47520	31.61	-1.6
43	47670	31.71	-1.6
43	47820	31.81	-1.6
43	47970	31.91	-1.6
43	48124	32.01	-1.6
43	48274	32.11	-1.6
43	48424	32.21	-1.6
43	48574	32.31	-1.6
43	48724	32.41	-1.6
43	48874	32.51	-1.6
43	49024	32.61	-1.6
43	49174	32.71	-1.6
43	49324	32.81	-1.6
43	49474	32.91	-1.6
43	49628	33.01	-1.6
43	49778	33.11	-1.6
43	49928	33.21	-1.6
43	50078	33.31	-1.6
43	50228	33.41	-1.6
43	50378	33.51	-1.6
43	50528	33.61	-1.6
43	50678	33.71	-1.6
43	50828	33.81	-1.6
43	50978	33.91	-1.6
43	51132	34.01	-1.6
43	51282	34.11	-1.6
43	51432	34.21	-1.6
43	51582	34.31	-1.6
43	51732	34.41	-1.6
43	51882	34.51	-1.6
43	52032	34.61	-1.6
43	52182	34.71	-1.6
43	52332	34.81	-1.6
43	52482	34.91	-1.6
43	52636	35.01	-1.6
43	52786	35.11	-1.6
42	25	0.21	52.4982
42	175	0.31	55.262
42	325	0.41	58.0025
42	475	0.51	60.711
42	625	0.61	63.3808
42	775	0.71	66.0067
42	925	0.81	68.585
42	1075	0.91	71.1132
42	1229	1.01	73.5902
42	1380	1.11	76.0154
42	1531	1.21	78.3893
42	1682	1.31	80.7129
42	2098	1.41	82.988
42	2248	1.51	85.2208
42	2398	1.61	87.4214
42	2548	1.71	89.5982
42	2698	1.81	91.7583
42	2848	1.91	93.9072
42	3002	2.01	96.0498
42	3152	2.11	98.1899
42	3302	2.21	100.33
42	3452	2.31	102.474
42	3602	2.41	104.623
42	3752	2.51	106.78
42	3902	2.61	108.944
42	4052	2.71	111.119
42	4202	2.81	113.304
42	4352	2.91	115.5
42	4506	3.01	117.708
42	4656	3.11	119.929
42	4806	3.21	122.163
42	4956	3.31	124.411
42	5106	3.41	126.672
42	5256	3.51	128.947
42	5406	3.61	131.236
42	5556	3.71	133.539
42	5706	3.81	135.857
42	5856	3.91	138.189
42	6010	4.01	140.536
42	6160	4.11	142.897
42	6310	4.21	145.273
42	6460	4.31	147.664
42	6610	4.41	150.07
42	6760	4.51	152.491
42	6910	4.61	154.926
42	7060	4.71	157.376
42	7210	4.81	159.842
42	7360	4.91	162.322
42	7514	5.01	164.817
42	7664	5.11	167.327
42	7814	5.21	169.852
42	7964	5.31	172.392
42	8114	5.41	174.947
42	8264	5.51	177.517
42	8414	5.61	180.102
42	8564	5.71	182.702
42	8714	5.81	185.317
42	8864	5.91	187.947
42	9018	6.01	190.592
42	9168	6.11	193.252
42	9318	6.21	195.925
42	9468	6.31	198.612
42	9618	6.41	201.312
42	9768	6.51	204.023
42	9918	6.61	206.746
42	10068	6.71	209.478
42	10218	6.81	212.219
42	10368	6.91	214.968
42	10522	7.01	217.725
42	10672	7.11	220.487
42	10822	7.21	223.255
42	10972	7.31	226.027
42	11122	7.41	228.803
42	11272	7.51	231.583
42	11422	7.61	234.365
42	11572	7.71	237.149
42	11722	7.81	239.934
42	11872	7.91	242.721
42	12026	8.01	245.508
42	12176	8.11	248.296
42	12326	8.21	251.084
42	12476	8.31	253.872
42	12626	8.41	256.66
42	12776	8.51	259.448
42	12926	8.61	262.235
42	13076	8.71	265.022
42	13226	8.81	267.808
42	13376	8.91	270.593
42	13530	9.01	273.378
42	13680	9.11	276.162
42	13830	9.21	278.945
42	13980	9.31	281.728
42	14130	9.41	284.51
42	14280	9.51	287.291
42	14430	9.61	290.072
42	14580	9.71	292.852
42	14730	9.81	295.632
42	14880	9.91	298.412
42	15034	10.01	301.191
42	15184	10.11	303.97
42	15334	10.21	306.749
42	15484	10.31	309.527
42	15634	10.41	312.305
42	15784	10.51	315.083
42	15934	10.61	317.861
42	16084	10.71	320.638
42	16234	10.81	323.416
42	16384	10.91	326.193
42	16538	11.01	328.971
42	16688	11.11	331.748
42	16838	11.21	334.526
42	16988	11.31	337.303
42	17139	11.41	340.08
42	17289	11.51	342.857
42	17439	11.61	345.635
42	17589	11.71	348.412
42	17739	11.81	351.19
42	17890	11.91	353.967
42	18044	12.01	356.744
42	18194	12.11	359.522
42	18344	12.21	362.299
42	18494	12.31	365.077
42	18644	12.41	367.854
42	18794	12.51	370.632
42	18944	12.61	373.41
42	19094	12.71	376.187
42	19244	12.81	378.965
42	19394	12.91	381.743
42	19548	13.01	384.52
42	19698	13.11	387.298
42	19848	13.21	390.076
42	19998	13.31	392.853
42	20148	13.41	395.631
42	20298	13.51	398.409
42	20448	13.61	401.187
42	20598	13.71	403.964
42	20748	13.81	406.742
42	20898	13.91	409.52
42	21052	14.01	412.298
42	21202	14.11	415.076
42	21352	14.21	417.853
42	21502	14.31	420.631
42	21652	14.41	423.409
42	21802	14.51	426.187
42	21952	14.61	428.965
42	22102	14.71	431.742
42	22252	14.81	434.52
42	22402	14.91	437.298
42	22556	15.01	440.076
42	22706	15.11	442.854
42	22856	15.21	445.631
42	23006	15.31	448.409
42	23156	15.41	451.187
42	23306	15.51	453.965
42	23456	15.61	456.743
42	23606	15.71	459.52
42	23756	15.81	462.298
42	23906	15.91	465.076
42	24060	16.01	467.854
42	24210	16.11	470.632
42	24360	16.21	473.409
42	24510	16.31	476.187
42	24660	16.41	478.965
42	24810	16.51	481.743
42	24960	16.61	484.52
42	25110	16.71	487.298
42	25260	16.81	490.076
42	25410	16.91	492.854
42	25564	17.01	495.632
42	25714	17.11	498.409
42	25864	17.21	501.187
42	26014	17.31	503.965
42	26164	17.41	506.743
42	26314	17.51	509.52
42	26464	17.61	512.298
42	26614	17.71	515.076
42	26764	17.81	517.854
42	26914	17.91	520.632
42	27068	18.01	523.409
42	27218	18.11	526.187
42	27368	18.21	528.965
42	27518	18.31	531.743
42	27668	18.41	534.52
42	27818	18.51	537.298
42	27968	18.61	540.076
42	28118	18.71	542.854
42	28268	18.81	545.632
42	28418	18.91	548.409
42	28572	19.01	551.187
42	28722	19.11	553.965
42	28872	19.21	556.743
42	29022	19.31	559.52
42	29172	19.41	562.298
42	29322	19.51	565.076
42	29472	19.61	567.854
42	29622	19.71	570.632
42	29772	19.81	573.409
42	29922	19.91	576.187
42	30076	20.01	578.965
42	30226	20.11	581.743
42	30376	20.21	584.52
42	30526	20.31	587.298
42	30676	20.41	590.076
42	30826	20.51	592.854
42	30976	20.61	595.632
42	31126	20.71	598.409
42	31276	20.81	601.187
42	31426	20.91	603.965
42	31580	21.01	606.743
42	31730	21.11	609.521
42	31880	21.21	612.298
42	32030	21.31	615.076
42	32180	21.41	617.854
42	32330	21.51	620.632
42	32480	21.61	623.409
42	32630	21.71	626.187
42	32780	21.81	628.965
42	32930	21.91	631.743
42	33084	22.01	634.521
42	33234	22.11	637.298
42	33384	22.21	640.076
42	33534	22.31	642.854
42	33684	22.41	645.632
42	33834	22.51	648.409
42	33984	22.61	651.187
42	34134	22.71	653.965
42	34284	22.81	656.743
42	34434	22.91	659.521
42	34588	23.01	662.298
42	34738	23.11	665.076
42	34888	23.21	667.854
42	35038	23.31	670.632
42	35188	23.41	673.409
42	35338	23.51	676.187
42	35488	23.61	678.965
42	35638	23.71	681.743
42	35788	23.81	684.521
42	35938	23.91	687.298
42	36092	24.01	690.076
42	36242	24.11	692.854
42	36392	24.21	695.632
42	36542	24.31	698.409
42	36692	24.41	701.187
42	36842	24.51	703.965
42	36992	24.61	706.743
42	37142	24.71	709.521
42	37292	24.81	712.298
42	37442	24.91	715.076
42	37596	25.01	717.854
42	37746	25.11	720.632
42	37896	25.21	723.409
42	38046	25.31	726.187
42	38196	25.41	728.965
42	38346	25.51	731.743
42	38496	25.61	734.521
42	38646	25.71	737.298
42	38796	25.81	740.076
42	38946	25.91	742.854
42	39100	26.01	745.632
42	39250	26.11	748.41
42	39400	26.21	751.187
42	39550	26.31	753.965
42	39700	26.41	756.743
42	39850	26.51	759.521
42	40000	26.61	762.298
42	40150	26.71	765.076
42	40300	26.81	767.854
42	40450	26.91	770.632
42	40604	27.01	773.41
42	40754	27.11	776.187
42	40904	27.21	778.965
42	41054	27.31	781.743
42	41204	27.41	784.521
42	41354	27.51	787.298
42	41504	27.61	790.076
42	41654	27.71	792.854
42	41804	27.81	795.632
42	41954	27.91	798.41
42	42108	28.01	801.187
42	42258	28.11	803.965
42	42408	28.21	806.743
42	42558	28.31	809.521
42	42708	28.41	812.298
42	42858	28.51	815.076
42	43008	28.61	817.854
42	43158	28.71	820.632
42	43308	28.81	823.41
42	43458	28.91	826.187
42	43612	29.01	828.965
42	43762	29.11	831.743
42	43912	29.21	834.521
42	44062	29.31	837.298
42	44212	29.41	840.076
42	44362	29.51	842.854
42	44512	29.61	845.632
42	44662	29.71	848.41
42	44812	29.81	851.187
42	44962	29.91	853.965
42	45116	30.01	856.743
42	45266	30.11	859.521
42	45416	30.21	862.298
42	45566	30.31	865.076
42	45716	30.41	867.854
42	45866	30.51	870.632
42	46016	30.61	873.41
42	46166	30.71	876.187
42	46316	30.81	878.965
42	46466	30.91	881.743
42	46620	31.01	884.521
42	46770	31.11	887.299
42	46920	31.21	890.076
42	47070	31.31	892.854
42	47220	31.41	895.632
42	47370	31.51	898.41
42	47520	31.61	901.187
42	47670	31.71	903.965
42	47820	31.81	906.743
42	47970	31.91	909.521
42	48124	32.01	912.299
42	48274	32.11	915.076
42	48424	32.21	917.854
42	48574	32.31	920.632
42	48724	32.41	923.41
42	48874	32.51	926.187
42	49024	32.61	928.965
42	49174	32.71	931.743
42	49324	32.81	934.521
42	49474	32.91	937.299
42	49628	33.01	940.076
42	49778	33.11	942.854
42	49928	33.21	945.632
42	50078	33.31	948.41
42	50228	33.41	951.187
42	50378	33.51	953.965
42	50528	33.61	956.743
42	50678	33.71	959.521
42	50828	33.81	962.299
42	50978	33.91	965.076
42	51132	34.01	967.854
42	51282	34.11	970.632
42	51432	34.21	973.41
42	51582	34.31	976.187
42	51732	34.41	978.965
42	51882	34.51	981.743
42	52032	34.61	984.521
42	52182	34.71	987.299
42	52332	34.81	990.076
42	52482	34.91	992.854
42	52636	35.01	995.632
42	52786	35.11	998.41
41	25	0.21	27.7189
41	175	0.31	27.5375
41	325	0.41	27.2584
41	475	0.51	26.9018
41	625	0.61	26.4857
41	775	0.71	26.0257
41	925	0.81	25.5356
41	1075	0.91	25.0272
41	1229	1.01	24.5107
41	1380	1.11	23.9945
41	1531	1.21	23.4857
41	1682	1.31	22.9899
41	2098	1.41	22.5218
41	2248	1.51	22.1512
41	2398	1.61	21.8742
41	2548	1.71	21.6738
41	2698	1.81	21.5365
41	2848	1.91	21.4507
41	3002	2.01	21.4073
41	3152	2.11	21.3986
41	3302	2.21	21.4185
41	3452	2.31	21.4617
41	3602	2.41	21.5241
41	3752	2.51	21.6023
41	3902	2.61	21.6933
41	4052	2.71	21.795
41	4202	2.81	21.9053
41	4352	2.91	22.0227
41	4506	3.01	22.146
41	4656	3.11	22.2741
41	4806	3.21	22.4062
41	4956	3.31	22.5414
41	5106	3.41	22.6793
41	5256	3.51	22.8194
41	5406	3.61	22.9613
41	5556	3.71	23.1046
41	5706	3.81	23.2491
41	5856	3.91	23.3947
41	6010	4.01	23.541
41	6160	4.11	23.6879
41	6310	4.21	23.8355
41	6460	4.31	23.9834
41	6610	4.41	24.1318
41	6760	4.51	24.2804
41	6910	4.61	24.4293
41	7060	4.71	24.5783
41	7210	4.81	24.7276
41	7360	4.91	24.877
41	7514	5.01	25.0265
41	7664	5.11	25.176
41	7814	5.21	25.3257
41	7964	5.31	25.4754
41	8114	5.41	25.6252
41	8264	5.51	25.775
41	8414	5.61	25.9248
41	8564	5.71	26.0747
41	8714	5.81	26.2246
41	8864	5.91	26.3744
41	9018	6.01	26.5224
41	9168	6.11	26.6664
41	9318	6.21	26.8044
41	9468	6.31	26.9351
41	9618	6.41	27.0574
41	9768	6.51	27.1707
41	9918	6.61	27.2745
41	10068	6.71	27.3687
41	10218	6.81	27.4533
41	10368	6.91	27.5285
41	10522	7.01	27.5947
41	10672	7.11	27.6523
41	10822	7.21	27.7018
41	10972	7.31	27.7437
41	11122	7.41	27.7787
41	11272	7.51	27.8075
41	11422	7.61	27.8305
41	11572	7.71	27.8484
41	11722	7.81	27.8619
41	11872	7.91	27.8714
41	12026	8.01	27.8776
41	12176	8.11	27.8808
41	12326	8.21	27.8816
41	12476	8.31	27.8804
41	12626	8.41	27.8776
41	12776	8.51	27.8735
41	12926	8.61	27.8684
41	13076	8.71	27.8626
41	13226	8.81	27.8564
41	13376	8.91	27.8498
41	13530	9.01	27.8431
41	13680	9.11	27.8365
41	13830	9.21	27.83
41	13980	9.31	27.8237
41	14130	9.41	27.8177
41	14280	9.51	27.8121
41	14430	9.61	27.8069
41	14580	9.71	27.8021
41	14730	9.81	27.7977
41	14880	9.91	27.7938
41	15034	10.01	27.7903
41	15184	10.11	27.7871
41	15334	10.21	27.7844
41	15484	10.31	27.7821
41	15634	10.41	27.7801
41	15784	10.51	27.7784
41	15934	10.61	27.777
41	16084	10.71	27.7759
41	16234	10.81	27.775
41	16384	10.91	27.7743
41	16538	11.01	27.7738
41	16688	11.11	27.7735
41	16838	11.21	27.7733
41	16988	11.31	27.7732
41	17139	11.41	27.7732
41	17289	11.51	27.7733
41	17439	11.61	27.7735
41	17589	11.71	27.7737
41	17739	11.81	27.7739
41	17890	11.91	27.7742
41	18044	12.01	27.7745
41	18194	12.11	27.7748
41	18344	12.21	27.7751
41	18494	12.31	27.7754
41	18644	12.41	27.7756
41	18794	12.51	27.7759
41	18944	12.61	27.7762
41	19094	12.71	27.7764
41	19244	12.81	27.7766
41	19394	12.91	27.7768
41	19548	13.01	27.777
41	19698	13.11	27.7772
41	19848	13.21	27.7773
41	19998	13.31	27.7775
41	20148	13.41	27.7776
41	20298	13.51	27.7777
41	20448	13.61	27.7777
41	20598	13.71	27.7778
41	20748	13.81	27.7779
41	20898	13.91	27.7779
41	21052	14.01	27.7779
41	21202	14.11	27.778
41	21352	14.21	27.778
41	21502	14.31	27.778
41	21652	14.41	27.778
41	21802	14.51	27.778
41	21952	14.61	27.778
41	22102	14.71	27.778
41	22252	14.81	27.778
41	22402	14.91	27.778
41	22556	15.01	27.778
41	22706	15.11	27.778
41	22856	15.21	27.7779
41	23006	15.31	27.7779
41	23156	15.41	27.7779
41	23306	15.51	27.7779
41	23456	15.61	27.7779
41	23606	15.71	27.7779
41	23756	15.81	27.7779
41	23906	15.91	27.7779
41	24060	16.01	27.7778
41	24210	16.11	27.7778
41	24360	16.21	27.7778
41	24510	16.31	27.7778
41	24660	16.41	27.7778
41	24810	16.51	27.7778
41	24960	16.61	27.7778
41	25110	16.71	27.7778
41	25260	16.81	27.7778
41	25410	16.91	27.7778
41	25564	17.01	27.7778
41	25714	17.11	27.7778
41	25864	17.21	27.7778
41	26014	17.31	27.7778
41	26164	17.41	27.7778
41	26314	17.51	27.7778
41	26464	17.61	27.7778
41	26614	17.71	27.7778
41	26764	17.81	27.7778
41	26914	17.91	27.7778
41	27068	18.01	27.7778
41	27218	18.11	27.7778
41	27368	18.21	27.7778
41	27518	18.31	27.7778
41	27668	18.41	27.7778
41	27818	18.51	27.7778
41	27968	18.61	27.7778
41	28118	18.71	27.7778
41	28268	18.81	27.7778
41	28418	18.91	27.7778
41	28572	19.01	27.7778
41	28722	19.11	27.7778
41	28872	19.21	27.7778
41	29022	19.31	27.7778
41	29172	19.41	27.7778
41	29322	19.51	27.7778
41	29472	19.61	27.7778
41	29622	19.71	27.7778
41	29772	19.81	27.7778
41	29922	19.91	27.7778
41	30076	20.01	27.7778
41	30226	20.11	27.7778
41	30376	20.21	27.7778
41	30526	20.31	27.7778
41	30676	20.41	27.7778
41	30826	20.51	27.7778
41	30976	20.61	27.7778
41	31126	20.71	27.7778
41	31276	20.81	27.7778
41	31426	20.91	27.7778
41	31580	21.01	27.7778
41	31730	21.11	27.7778
41	31880	21.21	27.7778
41	32030	21.31	27.7778
41	32180	21.41	27.7778
41	32330	21.51	27.7778
41	32480	21.61	27.7778
41	32630	21.71	27.7778
41	32780	21.81	27.7778
41	32930	21.91	27.7778
41	33084	22.01	27.7778
41	33234	22.11	27.7778
41	33384	22.21	27.7778
41	33534	22.31	27.7778
41	33684	22.41	27.7778
41	33834	22.51	27.7778
41	33984	22.61	27.7778
41	34134	22.71	27.7778
41	34284	22.81	27.7778
41	34434	22.91	27.7778
41	34588	23.01	27.7778
41	34738	23.11	27.7778
41	34888	23.21	27.7778
41	35038	23.31	27.7778
41	35188	23.41	27.7778
41	35338	23.51	27.7778
41	35488	23.61	27.7778
41	35638	23.71	27.7778
41	35788	23.81	27.7778
41	35938	23.91	27.7778
41	36092	24.01	27.7778
41	36242	24.11	27.7778
41	36392	24.21	27.7778
41	36542	24.31	27.7778
41	36692	24.41	27.7778
41	36842	24.51	27.7778
41	36992	24.61	27.7778
41	37142	24.71	27.7778
41	37292	24.81	27.7778
41	37442	24.91	27.7778
41	37596	25.01	27.7778
41	37746	25.11	27.7778
41	37896	25.21	27.7778
41	38046	25.31	27.7778
41	38196	25.41	27.7778
41	38346	25.51	27.7778
41	38496	25.61	27.7778
41	38646	25.71	27.7778
41	38796	25.81	27.7778
41	38946	25.91	27.7778
41	39100	26.01	27.7778
41	39250	26.11	27.7778
41	39400	26.21	27.7778
41	39550	26.31	27.7778
41	39700	26.41	27.7778
41	39850	26.51	27.7778
41	40000	26.61	27.7778
41	40150	26.71	27.7778
41	40300	26.81	27.7778
41	40450	26.91	27.7778
41	40604	27.01	27.7778
41	40754	27.11	27.7778
41	40904	27.21	27.7778
41	41054	27.31	27.7778
41	41204	27.41	27.7778
41	41354	27.51	27.7778
41	41504	27.61	27.7778
41	41654	27.71	27.7778
41	41804	27.81	27.7778
41	41954	27.91	27.7778
41	42108	28.01	27.7778
41	42258	28.11	27.7778
41	42408	28.21	27.7778
41	42558	28.31	27.7778
41	42708	28.41	27.7778
41	42858	28.51	27.7778
41	43008	28.61	27.7778
41	43158	28.71	27.7778
41	43308	28.81	27.7778
41	43458	28.91	27.7778
41	43612	29.01	27.7778
41	43762	29.11	27.7778
41	43912	29.21	27.7778
41	44062	29.31	27.7778
41	44212	29.41	27.7778
41	44362	29.51	27.7778
41	44512	29.61	27.7778
41	44662	29.71	27.7778
41	44812	29.81	27.7778
41	44962	29.91	27.7778
41	45116	30.01	27.7778
41	45266	30.11	27.7778
41	45416	30.21	27.7778
41	45566	30.31	27.7778
41	45716	30.41	27.7778
41	45866	30.51	27.7778
41	46016	30.61	27.7778
41	46166	30.71	27.7778
41	46316	30.81	27.7778
41	46466	30.91	27.7778
41	46620	31.01	27.7778
41	46770	31.11	27.7778
41	46920	31.21	27.7778
41	47070	31.31	27.7778
41	47220	31.41	27.7778
41	47370	31.51	27.7778
41	47520	31.61	27.7778
41	47670	31.71	27.7778
41	47820	31.81	27.7778
41	47970	31.91	27.7778
41	48124	32.01	27.7778
41	48274	32.11	27.7778
41	48424	32.21	27.7778
41	48574	32.31	27.7778
41	48724	32.41	27.7778
41	48874	32.51	27.7778
41	49024	32.61	27.7778
41	49174	32.71	27.7778
41	49324	32.81	27.7778
41	49474	32.91	27.7778
41	49628	33.01	27.7778
41	49778	33.11	27.7778
41	49928	33.21	27.7778
41	50078	33.31	27.7778
41	50228	33.41	27.7778
41	50378	33.51	27.7778
41	50528	33.61	27.7778
41	50678	33.71	27.7778
41	50828	33.81	27.7778
41	50978	33.91	27.7778
41	51132	34.01	27.7778
41	51282	34.11	27.7778
41	51432	34.21	27.7778
41	51582	34.31	27.7778
41	51732	34.41	27.7778
41	51882	34.51	27.7778
41	52032	34.61	27.7778
41	52182	34.71	27.7778
41	52332	34.81	27.7778
41	52482	34.91	27.7778
41	52636	35.01	27.7778
41	52786	35.11	27.7778
37	25	0.21	-13.8289
37	175	0.31	-13.6475
37	325	0.41	-13.3685
37	475	0.51	-13.0119
37	625	0.61	-12.5958
37	775	0.71	-12.1358
37	925	0.81	-11.6458
37	1075	0.91	-11.1375
37	1229	1.01	-10.6211
37	1380	1.11	-10.1049
37	1531	1.21	-9.59616
37	1682	1.31	-9.10045
37	2098	1.41	0
37	2248	1.51	0
37	2398	1.61	0
37	2548	1.71	0
37	2698	1.81	0
37	2848	1.91	0
37	3002	2.01	0
37	3152	2.11	0
37	3302	2.21	0
37	3452	2.31	0
37	3602	2.41	0
37	3752	2.51	0
37	3902	2.61	0
37	4052	2.71	0
37	4202	2.81	0
37	4352	2.91	0
37	4506	3.01	0
37	4656	3.11	0
37	4806	3.21	0
37	4956	3.31	0
37	5106	3.41	0
37	5256	3.51	0
37	5406	3.61	0
37	5556	3.71	0
37	5706	3.81	0
37	5856	3.91	0
37	6010	4.01	0
37	6160	4.11	0
37	6310	4.21	0
37	6460	4.31	0
37	6610	4.41	0
37	6760	4.51	0
37	6910	4.61	0
37	7060	4.71	0
37	7210	4.81	0
37	7360	4.91	0
37	7514	5.01	0
37	7664	5.11	0
37	7814	5.21	0
37	7964	5.31	0
37	8114	5.41	0
37	8264	5.51	0
37	8414	5.61	0
37	8564	5.71	0
37	8714	5.81	0
37	8864	5.91	0
37	9018	6.01	0
37	9168	6.11	0
37	9318	6.21	0
37	9468	6.31	0
37	9618	6.41	0
37	9768	6.51	0
37	9918	6.61	0
37	10068	6.71	0
37	10218	6.81	0
37	10368	6.91	0
37	10522	7.01	0
37	10672	7.11	0
37	10822	7.21	0
37	10972	7.31	0
37	11122	7.41	0
37	11272	7.51	0
37	11422	7.61	0
37	11572	7.71	0
37	11722	7.81	0
37	11872	7.91	0
37	12026	8.01	0
37	12176	8.11	0
37	12326	8.21	0
37	12476	8.31	0
37	12626	8.41	0
37	12776	8.51	0
37	12926	8.61	0
37	13076	8.71	0
37	13226	8.81	0
37	13376	8.91	0
37	13530	9.01	0
37	13680	9.11	0
37	13830	9.21	0
37	13980	9.31	0
37	14130	9.41	0
37	14280	9.51	0
37	14430	9.61	0
37	14580	9.71	0
37	14730	9.81	0
37	14880	9.91	0
37	15034	10.01	0
37	15184	10.11	0
37	15334	10.21	0
37	15484	10.31	0
37	15634	10.41	0
37	15784	10.51	0
37	15934	10.61	0
37	16084	10.71	0
37	16234	10.81	0
37	16384	10.91	0
37	16538	11.01	0
37	16688	11.11	0
37	16838	11.21	0
37	16988	11.31	0
37	17139	11.41	0
37	17289	11.51	0
37	17439	11.61	0
37	17589	11.71	0
37	17739	11.81	0
37	17890	11.91	0
37	18044	12.01	0
37	18194	12.11	0
37	18344	12.21	0
37	18494	12.31	0
37	18644	12.41	0
37	18794	12.51	0
37	18944	12.61	0
37	19094	12.71	0
37	19244	12.81	0
37	19394	12.91	0
37	19548	13.01	0
37	19698	13.11	0
37	19848	13.21	0
37	19998	13.31	0
37	20148	13.41	0
37	20298	13.51	0
37	20448	13.61	0
37	20598	13.71	0
37	20748	13.81	0
37	20898	13.91	0
37	21052	14.01	0
37	21202	14.11	0
37	21352	14.21	0
37	21502	14.31	0
37	21652	14.41	0
37	21802	14.51	0
37	21952	14.61	0
37	22102	14.71	0
37	22252	14.81	0
37	22402	14.91	0
37	22556	15.01	0
37	22706	15.11	0
37	22856	15.21	0
37	23006	15.31	0
37	23156	15.41	0
37	23306	15.51	0
37	23456	15.61	0
37	23606	15.71	0
37	23756	15.81	0
37	23906	15.91	0
37	24060	16.01	0
37	24210	16.11	0
37	24360	16.21	0
37	24510	16.31	0
37	24660	16.41	0
37	24810	16.51	0
37	24960	16.61	0
37	25110	16.71	0
37	25260	16.81	0
37	25410	16.91	0
37	25564	17.01	0
37	25714	17.11	0
37	25864	17.21	0
37	26014	17.31	0
37	26164	17.41	0
37	26314	17.51	0
37	26464	17.61	0
37	26614	17.71	0
37	26764	17.81	0
37	26914	17.91	0
37	27068	18.01	0
37	27218	18.11	0
37	27368	18.21	0
37	27518	18.31	0
37	27668	18.41	0
37	27818	18.51	0
37	27968	18.61	0
37	28118	18.71	0
37	28268	18.81	0
37	28418	18.91	0
37	28572	19.01	0
37	28722	19.11	0
37	28872	19.21	0
37	29022	19.31	0
37	29172	19.41	0
37	29322	19.51	0
37	29472	19.61	0
37	29622	19.71	0
37	29772	19.81	0
37	29922	19.91	0
37	30076	20.01	0
37	30226	20.11	0
37	30376	20.21	0
37	30526	20.31	0
37	30676	20.41	0
37	30826	20.51	0
37	30976	20.61	0
37	31126	20.71	0
37	31276	20.81	0
37	31426	20.91	0
37	31580	21.01	0
37	31730	21.11	0
37	31880	21.21	0
37	32030	21.31	0
37	32180	21.41	0
37	32330	21.51	0
37	32480	21.61	0
37	32630	21.71	0
37	32780	21.81	0
37	32930	21.91	0
37	33084	22.01	0
37	33234	22.11	0
37	33384	22.21	0
37	33534	22.31	0
37	33684	22.41	0
37	33834	22.51	0
37	33984	22.61	0
37	34134	22.71	0
37	34284	22.81	0
37	34434	22.91	0
37	34588	23.01	0
37	34738	23.11	0
37	34888	23.21	0
37	35038	23.31	0
37	35188	23.41	0
37	35338	23.51	0
37	35488	23.61	0
37	35638	23.71	0
37	35788	23.81	0
37	35938	23.91	0
37	36092	24.01	0
37	36242	24.11	0
37	36392	24.21	0
37	36542	24.31	0
37	36692	24.41	0
37	36842	24.51	0
37	36992	24.61	0
37	37142	24.71	0
37	37292	24.81	0
37	37442	24.91	0
37	37596	25.01	0
37	37746	25.11	0
37	37896	25.21	0
37	38046	25.31	0
37	38196	25.41	0
37	38346	25.51	0
37	38496	25.61	0
37	38646	25.71	0
37	38796	25.81	0
37	38946	25.91	0
37	39100	26.01	0
37	39250	26.11	0
37	39400	26.21	0
37	39550	26.31	0
37	39700	26.41	0
37	39850	26.51	0
37	40000	26.61	0
37	40150	26.71	0
37	40300	26.81	0
37	40450	26.91	0
37	40604	27.01	0
37	40754	27.11	0
37	40904	27.21	0
37	41054	27.31	0
37	41204	27.41	0
37	41354	27.51	0
37	41504	27.61	0
37	41654	27.71	0
37	41804	27.81	0
37	41954	27.91	0
37	42108	28.01	0
37	42258	28.11	0
37	42408	28.21	0
37	42558	28.31	0
37	42708	28.41	0
37	42858	28.51	0
37	43008	28.61	0
37	43158	28.71	0
37	43308	28.81	0
37	43458	28.91	0
37	43612	29.01	0
37	43762	29.11	0
37	43912	29.21	0
37	44062	29.31	0
37	44212	29.41	0
37	44362	29.51	0
37	44512	29.61	0
37	44662	29.71	0
37	44812	29.81	0
37	44962	29.91	0
37	45116	30.01	0
37	45266	30.11	0
37	45416	30.21	0
37	45566	30.31	0
37	45716	30.41	0
37	45866	30.51	0
37	46016	30.61	0
37	46166	30.71	0
37	46316	30.81	0
37	46466	30.91	0
37	46620	31.01	0
37	46770	31.11	0
37	46920	31.21	0
37	47070	31.31	0
37	47220	31.41	0
37	47370	31.51	0
37	47520	31.61	0
37	47670	31.71	0
37	47820	31.81	0
37	47970	31.91	0
37	48124	32.01	0
37	48274	32.11	0
37	48424	32.21	0
37	48574	32.31	0
37	48724	32.41	0
37	48874	32.51	0
37	49024	32.61	0
37	49174	32.71	0
37	49324	32.81	0
37	49474	32.91	0
37	49628	33.01	0
37	49778	33.11	0
37	49928	33.21	0
37	50078	33.31	0
37	50228	33.41	0
37	50378	33.51	0
37	50528	33.61	0
37	50678	33.71	0
37	50828	33.81	0
37	50978	33.91	0
37	51132	34.01	0
37	51282	34.11	0
37	51432	34.21	0
37	51582	34.31	0
37	51732	34.41	0
37	51882	34.51	0
37	52032	34.61	0
37	52182	34.71	0
37	52332	34.81	0
37	52482	34.91	0
37	52636	35.01	0
37	52786	35.11	0
36	25	0.21	85.7519
36	175	0.31	84.3771
36	325	0.41	83.0256
36	475	0.51	81.706
36	625	0.61	80.4252
36	775	0.71	79.1884
36	925	0.81	77.9991
36	1075	0.91	76.8598
36	1229	1.01	75.7718
36	1380	1.11	74.7356
36	1531	1.21	73.7506
36	1682	1.31	72.8159
36	2098	1.41	-1
36	2248	1.51	-1
36	2398	1.61	-1
36	2548	1.71	-1
36	2698	1.81	-1
36	2848	1.91	-1
36	3002	2.01	-1
36	3152	2.11	-1
36	3302	2.21	-1
36	3452	2.31	-1
36	3602	2.41	-1
36	3752	2.51	-1
36	3902	2.61	-1
36	4052	2.71	-1
36	4202	2.81	-1
36	4352	2.91	-1
36	4506	3.01	-1
36	4656	3.11	-1
36	4806	3.21	-1
36	4956	3.31	-1
36	5106	3.41	-1
36	5256	3.51	-1
36	5406	3.61	-1
36	5556	3.71	-1
36	5706	3.81	-1
36	5856	3.91	-1
36	6010	4.01	-1
36	6160	4.11	-1
36	6310	4.21	-1
36	6460	4.31	-1
36	6610	4.41	-1
36	6760	4.51	-1
36	6910	4.61	-1
36	7060	4.71	-1
36	7210	4.81	-1
36	7360	4.91	-1
36	7514	5.01	-1
36	7664	5.11	-1
36	7814	5.21	-1
36	7964	5.31	-1
36	8114	5.41	-1
36	8264	5.51	-1
36	8414	5.61	-1
36	8564	5.71	-1
36	8714	5.81	-1
36	8864	5.91	-1
36	9018	6.01	-1
36	9168	6.11	-1
36	9318	6.21	-1
36	9468	6.31	-1
36	9618	6.41	-1
36	9768	6.51	-1
36	9918	6.61	-1
36	10068	6.71	-1
36	10218	6.81	-1
36	10368	6.91	-1
36	10522	7.01	-1
36	10672	7.11	-1
36	10822	7.21	-1
36	10972	7.31	-1
36	11122	7.41	-1
36	11272	7.51	-1
36	11422	7.61	-1
36	11572	7.71	-1
36	11722	7.81	-1
36	11872	7.91	-1
36	12026	8.01	-1
36	12176	8.11	-1
36	12326	8.21	-1
36	12476	8.31	-1
36	12626	8.41	-1
36	12776	8.51	-1
36	12926	8.61	-1
36	13076	8.71	-1
36	13226	8.81	-1
36	13376	8.91	-1
36	13530	9.01	-1
36	13680	9.11	-1
36	13830	9.21	-1
36	13980	9.31	-1
36	14130	9.41	-1
36	14280	9.51	-1
36	14430	9.61	-1
36	14580	9.71	-1
36	14730	9.81	-1
36	14880	9.91	-1
36	15034	10.01	-1
36	15184	10.11	-1
36	15334	10.21	-1
36	15484	10.31	-1
36	15634	10.41	-1
36	15784	10.51	-1
36	15934	10.61	-1
36	16084	10.71	-1
36	16234	10.81	-1
36	16384	10.91	-1
36	16538	11.01	-1
36	16688	11.11	-1
36	16838	11.21	-1
36	16988	11.31	-1
36	17139	11.41	-1
36	17289	11.51	-1
36	17439	11.61	-1
36	17589	11.71	-1
36	17739	11.81	-1
36	17890	11.91	-1
36	18044	12.01	-1
36	18194	12.11	-1
36	18344	12.21	-1
36	18494	12.31	-1
36	18644	12.41	-1
36	18794	12.51	-1
36	18944	12.61	-1
36	19094	12.71	-1
36	19244	12.81	-1
36	19394	12.91	-1
36	19548	13.01	-1
36	19698	13.11	-1
36	19848	13.21	-1
36	19998	13.31	-1
36	20148	13.41	-1
36	20298	13.51	-1
36	20448	13.61	-1
36	20598	13.71	-1
36	20748	13.81	-1
36	20898	13.91	-1
36	21052	14.01	-1
36	21202	14.11	-1
36	21352	14.21	-1
36	21502	14.31	-1
36	21652	14.41	-1
36	21802	14.51	-1
36	21952	14.61	-1
36	22102	14.71	-1
36	22252	14.81	-1
36	22402	14.91	-1
36	22556	15.01	-1
36	22706	15.11	-1
36	22856	15.21	-1
36	23006	15.31	-1
36	23156	15.41	-1
36	23306	15.51	-1
36	23456	15.61	-1
36	23606	15.71	-1
36	23756	15.81	-1
36	23906	15.91	-1
36	24060	16.01	-1
36	24210	16.11	-1
36	24360	16.21	-1
36	24510	16.31	-1
36	24660	16.41	-1
36	24810	16.51	-1
36	24960	16.61	-1
36	25110	16.71	-1
36	25260	16.81	-1
36	25410	16.91	-1
36	25564	17.01	-1
36	25714	17.11	-1
36	25864	17.21	-1
36	26014	17.31	-1
36	26164	17.41	-1
36	26314	17.51	-1
36	26464	17.61	-1
36	26614	17.71	-1
36	26764	17.81	-1
36	26914	17.91	-1
36	27068	18.01	-1
36	27218	18.11	-1
36	27368	18.21	-1
36	27518	18.31	-1
36	27668	18.41	-1
36	27818	18.51	-1
36	27968	18.61	-1
36	28118	18.71	-1
36	28268	18.81	-1
36	28418	18.91	-1
36	28572	19.01	-1
36	28722	19.11	-1
36	28872	19.21	-1
36	29022	19.31	-1
36	29172	19.41	-1
36	29322	19.51	-1
36	29472	19.61	-1
36	29622	19.71	-1
36	29772	19.81	-1
36	29922	19.91	-1
36	30076	20.01	-1
36	30226	20.11	-1
36	30376	20.21	-1
36	30526	20.31	-1
36	30676	20.41	-1
36	30826	20.51	-1
36	30976	20.61	-1
36	31126	20.71	-1
36	31276	20.81	-1
36	31426	20.91	-1
36	31580	21.01	-1
36	31730	21.11	-1
36	31880	21.21	-1
36	32030	21.31	-1
36	32180	21.41	-1
36	32330	21.51	-1
36	32480	21.61	-1
36	32630	21.71	-1
36	32780	21.81	-1
36	32930	21.91	-1
36	33084	22.01	-1
36	33234	22.11	-1
36	33384	22.21	-1
36	33534	22.31	-1
36	33684	22.41	-1
36	33834	22.51	-1
36	33984	22.61	-1
36	34134	22.71	-1
36	34284	22.81	-1
36	34434	22.91	-1
36	34588	23.01	-1
36	34738	23.11	-1
36	34888	23.21	-1
36	35038	23.31	-1
36	35188	23.41	-1
36	35338	23.51	-1
36	35488	23.61	-1
36	35638	23.71	-1
36	35788	23.81	-1
36	35938	23.91	-1
36	36092	24.01	-1
36	36242	24.11	-1
36	36392	24.21	-1
36	36542	24.31	-1
36	36692	24.41	-1
36	36842	24.51	-1
36	36992	24.61	-1
36	37142	24.71	-1
36	37292	24.81	-1
36	37442	24.91	-1
36	37596	25.01	-1
36	37746	25.11	-1
36	37896	25.21	-1
36	38046	25.31	-1
36	38196	25.41	-1
36	38346	25.51	-1
36	38496	25.61	-1
36	38646	25.71	-1
36	38796	25.81	-1
36	38946	25.91	-1
36	39100	26.01	-1
36	39250	26.11	-1
36	39400	26.21	-1
36	39550	26.31	-1
36	39700	26.41	-1
36	39850	26.51	-1
36	40000	26.61	-1
36	40150	26.71	-1
36	40300	26.81	-1
36	40450	26.91	-1
36	40604	27.01	-1
36	40754	27.11	-1
36	40904	27.21	-1
36	41054	27.31	-1
36	41204	27.41	-1
36	41354	27.51	-1
36	41504	27.61	-1
36	41654	27.71	-1
36	41804	27.81	-1
36	41954	27.91	-1
36	42108	28.01	-1
36	42258	28.11	-1
36	42408	28.21	-1
36	42558	28.31	-1
36	42708	28.41	-1
36	42858	28.51	-1
36	43008	28.61	-1
36	43158	28.71	-1
36	43308	28.81	-1
36	43458	28.91	-1
36	43612	29.01	-1
36	43762	29.11	-1
36	43912	29.21	-1
36	44062	29.31	-1
36	44212	29.41	-1
36	44362	29.51	-1
36	44512	29.61	-1
36	44662	29.71	-1
36	44812	29.81	-1
36	44962	29.91	-1
36	45116	30.01	-1
36	45266	30.11	-1
36	45416	30.21	-1
36	45566	30.31	-1
36	45716	30.41	-1
36	45866	30.51	-1
36	46016	30.61	-1
36	46166	30.71	-1
36	46316	30.81	-1
36	46466	30.91	-1
36	46620	31.01	-1
36	46770	31.11	-1
36	46920	31.21	-1
36	47070	31.31	-1
36	47220	31.41	-1
36	47370	31.51	-1
36	47520	31.61	-1
36	47670	31.71	-1
36	47820	31.81	-1
36	47970	31.91	-1
36	48124	32.01	-1
36	48274	32.11	-1
36	48424	32.21	-1
36	48574	32.31	-1
36	48724	32.41	-1
36	48874	32.51	-1
36	49024	32.61	-1
36	49174	32.71	-1
36	49324	32.81	-1
36	49474	32.91	-1
36	49628	33.01	-1
36	49778	33.11	-1
36	49928	33.21	-1
36	50078	33.31	-1
36	50228	33.41	-1
36	50378	33.51	-1
36	50528	33.61	-1
36	50678	33.71	-1
36	50828	33.81	-1
36	50978	33.91	-1
36	51132	34.01	-1
36	51282	34.11	-1
36	51432	34.21	-1
36	51582	34.31	-1
36	51732	34.41	-1
36	51882	34.51	-1
36	52032	34.61	-1
36	52182	34.71	-1
36	52332	34.81	-1
36	52482	34.91	-1
36	52636	35.01	-1
36	52786	35.11	-1
38	25	0.21	2
38	175	0.31	2
38	325	0.41	2
38	475	0.51	2
38	625	0.61	2
38	775	0.71	2
38	925	0.81	2
38	1075	0.91	2
38	1229	1.01	2
38	1380	1.11	2
38	1531	1.21	2
38	1682	1.31	2
38	2098	1.41	2
38	2248	1.51	2
38	2398	1.61	2
38	2548	1.71	2
38	2698	1.81	2
38	2848	1.91	2
38	3002	2.01	2
38	3152	2.11	2
38	3302	2.21	2
38	3452	2.31	2
38	3602	2.41	2
38	3752	2.51	2
38	3902	2.61	2
38	4052	2.71	2
38	4202	2.81	2
38	4352	2.91	2
38	4506	3.01	2
38	4656	3.11	2
38	4806	3.21	2
38	4956	3.31	2
38	5106	3.41	2
38	5256	3.51	2
38	5406	3.61	2
38	5556	3.71	2
38	5706	3.81	2
38	5856	3.91	2
38	6010	4.01	2
38	6160	4.11	2
38	6310	4.21	2
38	6460	4.31	2
38	6610	4.41	2
38	6760	4.51	2
38	6910	4.61	2
38	7060	4.71	2
38	7210	4.81	2
38	7360	4.91	2
38	7514	5.01	2
38	7664	5.11	2
38	7814	5.21	2
38	7964	5.31	2
38	8114	5.41	2
38	8264	5.51	2
38	8414	5.61	2
38	8564	5.71	2
38	8714	5.81	2
38	8864	5.91	2
38	9018	6.01	2
38	9168	6.11	2
38	9318	6.21	2
38	9468	6.31	2
38	9618	6.41	2
38	9768	6.51	2
38	9918	6.61	2
38	10068	6.71	2
38	10218	6.81	2
38	10368	6.91	2
38	10522	7.01	2
38	10672	7.11	2
38	10822	7.21	2
38	10972	7.31	2
38	11122	7.41	2
38	11272	7.51	2
38	11422	7.61	2
38	11572	7.71	2
38	11722	7.81	2
38	11872	7.91	2
38	12026	8.01	2
38	12176	8.11	2
38	12326	8.21	2
38	12476	8.31	2
38	12626	8.41	2
38	12776	8.51	2
38	12926	8.61	2
38	13076	8.71	2
38	13226	8.81	2
38	13376	8.91	2
38	13530	9.01	2
38	13680	9.11	2
38	13830	9.21	2
38	13980	9.31	2
38	14130	9.41	2
38	14280	9.51	2
38	14430	9.61	2
38	14580	9.71	2
38	14730	9.81	2
38	14880	9.91	2
38	15034	10.01	2
38	15184	10.11	2
38	15334	10.21	2
38	15484	10.31	2
38	15634	10.41	2
38	15784	10.51	2
38	15934	10.61	2
38	16084	10.71	2
38	16234	10.81	2
38	16384	10.91	2
38	16538	11.01	2
38	16688	11.11	2
38	16838	11.21	2
38	16988	11.31	2
38	17139	11.41	2
38	17289	11.51	2
38	17439	11.61	2
38	17589	11.71	2
38	17739	11.81	2
38	17890	11.91	2
38	18044	12.01	2
38	18194	12.11	2
38	18344	12.21	2
38	18494	12.31	2
38	18644	12.41	2
38	18794	12.51	2
38	18944	12.61	2
38	19094	12.71	2
38	19244	12.81	2
38	19394	12.91	2
38	19548	13.01	2
38	19698	13.11	2
38	19848	13.21	2
38	19998	13.31	2
38	20148	13.41	2
38	20298	13.51	2
38	20448	13.61	2
38	20598	13.71	2
38	20748	13.81	2
38	20898	13.91	2
38	21052	14.01	2
38	21202	14.11	2
38	21352	14.21	2
38	21502	14.31	2
38	21652	14.41	2
38	21802	14.51	2
38	21952	14.61	2
38	22102	14.71	2
38	22252	14.81	2
38	22402	14.91	2
38	22556	15.01	2
38	22706	15.11	2
38	22856	15.21	2
38	23006	15.31	2
38	23156	15.41	2
38	23306	15.51	2
38	23456	15.61	2
38	23606	15.71	2
38	23756	15.81	2
38	23906	15.91	2
38	24060	16.01	2
38	24210	16.11	2
38	24360	16.21	2
38	24510	16.31	2
38	24660	16.41	2
38	24810	16.51	2
38	24960	16.61	2
38	25110	16.71	2
38	25260	16.81	2
38	25410	16.91	2
38	25564	17.01	2
38	25714	17.11	2
38	25864	17.21	2
38	26014	17.31	2
38	26164	17.41	2
38	26314	17.51	2
38	26464	17.61	2
38	26614	17.71	2
38	26764	17.81	2
38	26914	17.91	2
38	27068	18.01	2
38	27218	18.11	2
38	27368	18.21	2
38	27518	18.31	2
38	27668	18.41	2
38	27818	18.51	2
38	27968	18.61	2
38	28118	18.71	2
38	28268	18.81	2
38	28418	18.91	2
38	28572	19.01	2
38	28722	19.11	2
38	28872	19.21	2
38	29022	19.31	2
38	29172	19.41	2
38	29322	19.51	2
38	29472	19.61	2
38	29622	19.71	2
38	29772	19.81	2
38	29922	19.91	2
38	30076	20.01	2
38	30226	20.11	2
38	30376	20.21	2
38	30526	20.31	2
38	30676	20.41	2
38	30826	20.51	2
38	30976	20.61	2
38	31126	20.71	2
38	31276	20.81	2
38	31426	20.91	2
38	31580	21.01	2
38	31730	21.11	2
38	31880	21.21	2
38	32030	21.31	2
38	32180	21.41	2
38	32330	21.51	2
38	32480	21.61	2
38	32630	21.71	2
38	32780	21.81	2
38	32930	21.91	2
38	33084	22.01	2
38	33234	22.11	2
38	33384	22.21	2
38	33534	22.31	2
38	33684	22.41	2
38	33834	22.51	2
38	33984	22.61	2
38	34134	22.71	2
38	34284	22.81	2
38	34434	22.91	2
38	34588	23.01	2
38	34738	23.11	2
38	34888	23.21	2
38	35038	23.31	2
38	35188	23.41	2
38	35338	23.51	2
38	35488	23.61	2
38	35638	23.71	2
38	35788	23.81	2
38	35938	23.91	2
38	36092	24.01	2
38	36242	24.11	2
38	36392	24.21	2
38	36542	24.31	2
38	36692	24.41	2
38	36842	24.51	2
38	36992	24.61	2
38	37142	24.71	2
38	37292	24.81	2
38	37442	24.91	2
38	37596	25.01	2
38	37746	25.11	2
38	37896	25.21	2
38	38046	25.31	2
38	38196	25.41	2
38	38346	25.51	2
38	38496	25.61	2
38	38646	25.71	2
38	38796	25.81	2
38	38946	25.91	2
38	39100	26.01	2
38	39250	26.11	2
38	39400	26.21	2
38	39550	26.31	2
38	39700	26.41	2
38	39850	26.51	2
38	40000	26.61	2
38	40150	26.71	2
38	40300	26.81	2
38	40450	26.91	2
38	40604	27.01	2
38	40754	27.11	2
38	40904	27.21	2
38	41054	27.31	2
38	41204	27.41	2
38	41354	27.51	2
38	41504	27.61	2
38	41654	27.71	2
38	41804	27.81	2
38	41954	27.91	2
38	42108	28.01	2
38	42258	28.11	2
38	42408	28.21	2
38	42558	28.31	2
38	42708	28.41	2
38	42858	28.51	2
38	43008	28.61	2
38	43158	28.71	2
38	43308	28.81	2
38	43458	28.91	2
38	43612	29.01	2
38	43762	29.11	2
38	43912	29.21	2
38	44062	29.31	2
38	44212	29.41	2
38	44362	29.51	2
38	44512	29.61	2
38	44662	29.71	2
38	44812	29.81	2
38	44962	29.91	2
38	45116	30.01	2
38	45266	30.11	2
38	45416	30.21	2
38	45566	30.31	2
38	45716	30.41	2
38	45866	30.51	2
38	46016	30.61	2
38	46166	30.71	2
38	46316	30.81	2
38	46466	30.91	2
38	46620	31.01	2
38	46770	31.11	2
38	46920	31.21	2
38	47070	31.31	2
38	47220	31.41	2
38	47370	31.51	2
38	47520	31.61	2
38	47670	31.71	2
38	47820	31.81	2
38	47970	31.91	2
38	48124	32.01	2
38	48274	32.11	2
38	48424	32.21	2
38	48574	32.31	2
38	48724	32.41	2
38	48874	32.51	2
38	49024	32.61	2
38	49174	32.71	2
38	49324	32.81	2
38	49474	32.91	2
38	49628	33.01	2
38	49778	33.11	2
38	49928	33.21	2
38	50078	33.31	2
38	50228	33.41	2
38	50378	33.51	2
38	50528	33.61	2
38	50678	33.71	2
38	50828	33.81	2
38	50978	33.91	2
38	51132	34.01	2
38	51282	34.11	2
38	51432	34.21	2
38	51582	34.31	2
38	51732	34.41	2
38	51882	34.51	2
38	52032	34.61	2
38	52182	34.71	2
38	52332	34.81	2
38	52482	34.91	2
38	52636	35.01	2
38	52786	35.11	2
64	1190	1	0
64	2963	2	0
64	4467	3	0
64	5971	4	0
64	7475	5	0
64	8979	6	0
64	10483	7	0
64	11987	8	0
64	13491	9	0
64	14995	10	0
64	16499	11	0
64	18005	12	0
64	19509	13	0
64	21013	14	0
64	22517	15	0
64	24021	16	0
64	25525	17	0
64	27029	18	0
64	28533	19	0
64	30037	20	0
64	31541	21	0
64	33045	22	0
64	34549	23	0
64	36053	24	0
64	37557	25	0
64	39061	26	0
64	40565	27	0
64	42069	28	0
64	43573	29	0
64	45077	30	0
64	46581	31	0
64	48085	32	0
64	49589	33	0
64	51093	34	0
64	52597	35	0
63	1190	1	0.00968
63	2963	2	0.013218919634
63	4467	3	0.01249
63	5971	4	0.01249
63	7475	5	0.01249
63	8979	6	0.01249
63	10483	7	0.01249
63	11987	8	0.01249
63	13491	9	0.01249
63	14995	10	0.01249
63	16499	11	0.01249
63	18005	12	0.01249
63	19509	13	0.01249
63	21013	14	0.01249
63	22517	15	0.01249
63	24021	16	0.01249
63	25525	17	0.01249
63	27029	18	0.01249
63	28533	19	0.01249
63	30037	20	0.01249
63	31541	21	0.01249
63	33045	22	0.01249
63	34549	23	0.01249
63	36053	24	0.01249
63	37557	25	0.01249
63	39061	26	0.01249
63	40565	27	0.01249
63	42069	28	0.01249
63	43573	29	0.01249
63	45077	30	0.01249
63	46581	31	0.01249
63	48085	32	0.01249
63	49589	33	0.01249
63	51093	34	0.01249
63	52597	35	0.01249
62	1190	1	2
62	2963	2	2
62	4467	3	2
62	5971	4	2
62	7475	5	2
62	8979	6	2
62	10483	7	2
62	11987	8	2
62	13491	9	2
62	14995	10	2
62	16499	11	2
62	18005	12	2
62	19509	13	2
62	21013	14	2
62	22517	15	2
62	24021	16	2
62	25525	17	2
62	27029	18	2
62	28533	19	2
62	30037	20	2
62	31541	21	2
62	33045	22	2
62	34549	23	2
62	36053	24	2
62	37557	25	2
62	39061	26	2
62	40565	27	2
62	42069	28	2
62	43573	29	2
62	45077	30	2
62	46581	31	2
62	48085	32	2
62	49589	33	2
62	51093	34	2
62	52597	35	2
17	15	0.13	2.5384870791679
17	16	0.14	1.6181993511681
17	17	0.15	0.71503928181322
17	18	0.16	-0.17103717331235
17	19	0.17	0.973
17	20	0.18	0.973
17	21	0.19	0.973
17	22	0.2	0.973
17	27	0.21	0.973
17	62	0.22	0.973
17	97	0.23	0.973
17	98	0.24	0.973
17	99	0.25	0.973
17	134	0.26	0.973
17	135	0.27	0.973
17	136	0.28	0.973
17	137	0.29	0.973
17	138	0.3	0.973
17	177	0.31	0.973
17	212	0.32	0.973
17	247	0.33	0.973
17	248	0.34	0.973
17	249	0.35	0.973
17	284	0.36	0.973
17	285	0.37	0.973
17	286	0.38	0.973
17	287	0.39	0.973
17	288	0.4	0.973
17	327	0.41	0.973
17	362	0.42	0.973
17	397	0.43	0.973
17	398	0.44	0.973
17	399	0.45	0.973
17	434	0.46	0.973
17	435	0.47	0.973
17	436	0.48	0.973
17	437	0.49	0.973
17	438	0.5	0.973
17	477	0.51	0.973
17	512	0.52	0.973
17	547	0.53	0.973
17	548	0.54	0.973
17	549	0.55	0.973
17	584	0.56	0.973
17	585	0.57	0.973
17	586	0.58	0.973
17	587	0.59	0.973
17	588	0.6	0.973
17	627	0.61	0.973
17	662	0.62	0.973
17	697	0.63	0.973
17	698	0.64	0.973
17	699	0.65	0.973
17	734	0.66	0.973
17	735	0.67	0.973
17	736	0.68	0.973
17	737	0.69	0.973
17	738	0.7	0.973
17	777	0.71	0.973
17	812	0.72	0.973
17	847	0.73	0.973
17	848	0.74	0.973
17	849	0.75	0.973
17	884	0.76	0.973
17	885	0.77	0.973
17	886	0.78	0.973
17	887	0.79	0.973
17	888	0.8	0.973
17	927	0.81	0.973
17	962	0.82	0.973
17	997	0.83	0.973
17	998	0.84	0.973
17	999	0.85	0.973
17	1034	0.86	0.973
17	1035	0.87	0.973
17	1036	0.88	0.973
17	1037	0.89	0.973
17	1038	0.9	0.973
17	1077	0.91	0.973
17	1112	0.92	0.973
17	1147	0.93	0.973
17	1148	0.94	0.973
17	1149	0.95	0.973
17	1184	0.96	0.973
17	1185	0.97	0.973
17	1186	0.98	0.973
17	1187	0.99	0.973
17	1192	1	0.973
17	1231	1.01	0.973
17	1266	1.02	0.973
17	1301	1.03	0.973
17	1302	1.04	0.973
17	1303	1.05	0.973
17	1338	1.06	0.973
17	1339	1.07	0.973
17	1340	1.08	0.973
17	1341	1.09	0.973
17	1342	1.1	0.973
17	1382	1.11	0.973
17	1417	1.12	0.973
17	1452	1.13	0.973
17	1453	1.14	0.973
17	1454	1.15	0.973
17	1489	1.16	0.973
17	1490	1.17	0.973
17	1491	1.18	0.973
17	1492	1.19	0.973
17	1493	1.2	0.973
17	1533	1.21	0.973
17	1568	1.22	0.973
17	1603	1.23	0.973
17	1604	1.24	0.973
17	1605	1.25	0.973
17	1640	1.26	0.973
17	1641	1.27	0.973
17	1642	1.28	0.973
17	1643	1.29	0.973
17	1644	1.3	0.973
17	1684	1.31	0.973
17	1931	1.32	0.973
17	1966	1.33	0.973
17	1967	1.34	0.973
17	1968	1.35	0.973
17	2004	1.36	0.973
17	2058	1.37	0.973
17	2059	1.38	0.973
17	2060	1.39	0.973
17	2061	1.4	0.973
17	2100	1.41	0.973
17	2135	1.42	0.973
17	2170	1.43	0.973
17	2171	1.44	0.973
17	2172	1.45	0.973
17	2207	1.46	0.973
17	2208	1.47	0.973
17	2209	1.48	0.973
17	2210	1.49	0.973
17	2211	1.5	0.973
17	2250	1.51	0.973
17	2285	1.52	0.973
17	2320	1.53	0.973
17	2321	1.54	0.973
17	2322	1.55	0.973
17	2357	1.56	0.973
17	2358	1.57	0.973
17	2359	1.58	0.973
17	2360	1.59	0.973
17	2361	1.6	0.973
17	2400	1.61	0.973
17	2435	1.62	0.973
17	2470	1.63	0.973
17	2471	1.64	0.973
17	2472	1.65	0.973
17	2507	1.66	0.973
17	2508	1.67	0.973
17	2509	1.68	0.973
17	2510	1.69	0.973
17	2511	1.7	0.973
17	2550	1.71	0.973
17	2585	1.72	0.973
17	2620	1.73	0.973
17	2621	1.74	0.973
17	2622	1.75	0.973
17	2657	1.76	0.973
17	2658	1.77	0.973
17	2659	1.78	0.973
17	2660	1.79	0.973
17	2661	1.8	0.973
17	2700	1.81	0.973
17	2735	1.82	0.973
17	2770	1.83	0.973
17	2771	1.84	0.973
17	2772	1.85	0.973
17	2807	1.86	0.973
17	2808	1.87	0.973
17	2809	1.88	0.973
17	2810	1.89	0.973
17	2811	1.9	0.973
17	2850	1.91	0.973
17	2885	1.92	0.973
17	2920	1.93	0.973
17	2921	1.94	0.52665434864749
17	2922	1.95	0.72777512198986
17	2957	1.96	0.92489282517555
17	2958	1.97	1.1180970082791
17	2959	1.98	1.3074749873025
17	2960	1.99	1.4931119075517
17	2965	2	1.6750908049738
17	3004	2.01	1.8534926655541
17	3039	2.02	2.02839648283
17	3074	2.03	2.1998793135792
17	3075	2.04	2.3680163317607
17	3076	2.05	2.5328808807555
17	3111	2.06	2.6945445239779
17	3112	2.07	2.8530770938945
17	3113	2.08	3.0085467395282
17	3114	2.09	3.1610199724842
17	3115	2.1	3.3105617115532
17	3154	2.11	3.4572353259338
17	3189	2.12	3.601102677134
17	3224	2.13	3.7422241595869
17	3225	2.14	3.8806587400241
17	3226	2.15	4.0164639956489
17	3261	2.16	4.1496961511596
17	3262	2.17	4.2804101146448
17	3263	2.18	4.4086595124006
17	3264	2.19	4.5344967227069
17	3265	2.2	4.6579729085834
17	3304	2.21	4.7791380495745
17	3339	2.22	4.8980409725906
17	3374	2.23	5.0147293818342
17	3375	2.24	5.1292498878381
17	3376	2.25	5.2416480356607
17	3411	2.26	5.3519683322405
17	3412	2.27	5.4602542729632
17	3413	2.28	5.5665483674539
17	3414	2.29	5.6708921646131
17	3415	2.3	5.7733262769395
17	3454	2.31	5.8738904041475
17	3489	2.32	5.9726233561065
17	3524	2.33	6.0695630751242
17	3525	2.34	6.1647466576019
17	3526	2.35	6.2582103750645
17	3561	2.36	6.3499896946047
17	3562	2.37	6.4401192987456
17	3563	2.38	6.528633104753
17	3564	2.39	6.6155642833954
17	3565	2.4	6.7009452771947
17	3604	2.41	6.7848078181612
17	3639	2.42	6.8671829450421
17	3674	2.43	6.9481010200938
17	3675	2.44	7.0275917453914
17	3676	2.45	7.1056841786974
17	3711	2.46	7.1824067488912
17	3712	2.47	7.2577872709881
17	3713	2.48	7.33185296074
17	3714	2.49	7.404630448859
17	3715	2.5	7.4761457948399
17	3754	2.51	7.5464245004313
17	3789	2.52	7.6154915227359
17	3824	2.53	7.6833712869645
17	3825	2.54	7.7500876988546
17	3826	2.55	7.8156641567665
17	3861	2.56	7.8801235634515
17	3862	2.57	7.9434883375181
17	3863	2.58	8.0057804246009
17	3864	2.59	8.0670213082353
17	3865	2.6	8.1272320204509
17	3904	2.61	8.1864331520977
17	3939	2.62	8.2446448628995
17	3974	2.63	8.3018868912551
17	3975	2.64	8.3581785637879
17	3976	2.65	8.4135388046496
17	4011	2.66	8.4679861445916
17	4012	2.67	8.5215387298147
17	4013	2.68	8.5742143305763
17	4014	2.69	8.6260303496072
17	4015	2.7	8.6770038302968
17	4054	2.71	8.7271514646876
17	4089	2.72	8.7764896012667
17	4124	2.73	8.8250342525636
17	4125	2.74	8.8728011025666
17	4126	2.75	8.9198055139522
17	4161	2.76	8.9660625351393
17	4162	2.77	9.0115869071694
17	4163	2.78	9.0563930704259
17	4164	2.79	9.1004951711842
17	4165	2.8	9.1439070680037
17	4204	2.81	9.1866423379765
17	4239	2.82	9.2287142828119
17	4274	2.83	9.2701359347848
17	4275	2.84	9.3109200625405
17	4276	2.85	9.3510791767607
17	4311	2.86	9.3906255356986
17	4312	2.87	9.4295711505765
17	4313	2.88	9.467927790866
17	4314	2.89	9.505706989438
17	4315	2.9	9.5429200475955
17	4354	2.91	9.579578039984
17	4389	2.92	9.6156918193951
17	4424	2.93	9.6512720214572
17	4425	2.94	9.6863290692146
17	4426	2.95	9.7208731776019
17	4461	2.96	9.754914357821
17	4462	2.97	9.7884624216119
17	4463	2.98	9.8215269854267
17	4464	2.99	9.8541174745164
17	4469	3	9.8862431269116
17	4508	3.01	9.9179129973267
17	4543	3.02	9.9491359609687
17	4578	3.03	9.9799207172592
17	4579	3.04	10.01027579348
17	4580	3.05	10.04020954833
17	4615	3.06	10.069730175405
17	4616	3.07	10.098845706604
17	4617	3.08	10.127564015454
17	4618	3.09	10.155892820366
17	4619	3.1	10.183839687816
17	4658	3.11	10.211412035457
17	4693	3.12	10.238617135163
17	4728	3.13	10.265462116007
17	4729	3.14	10.291953967171
17	4730	3.15	10.3180995408
17	4765	3.16	10.34390555478
17	4766	3.17	10.369378595474
17	4767	3.18	10.394525120382
17	4768	3.19	10.419351460752
17	4769	3.2	10.443863824141
17	4808	3.21	10.468068296901
17	4843	3.22	10.491970846633
17	4878	3.23	10.515577324578
17	4879	3.24	10.538893467957
17	4880	3.25	10.561924902264
17	4915	3.26	10.584677143509
17	4916	3.27	10.607155600414
17	4917	3.28	10.629365576559
17	4918	3.29	10.651312272488
17	4919	3.3	10.673000787771
17	4958	3.31	10.694436123012
17	4993	3.32	10.715623181832
17	5028	3.33	10.736566772791
17	5029	3.34	10.757271611287
17	5030	3.35	10.777742321407
17	5065	3.36	10.797983437738
17	5066	3.37	10.817999407143
17	5067	3.38	10.837794590506
17	5068	3.39	10.857373264422
17	5069	3.4	10.876739622878
17	5108	3.41	10.895897778878
17	5143	3.42	10.914851766044
17	5178	3.43	10.933605540185
17	5179	3.44	10.952162980828
17	5180	3.45	10.970527892721
17	5215	3.46	10.988704007305
17	5216	3.47	11.006694984156
17	5217	3.48	11.0245044124
17	5218	3.49	11.042135812092
17	5219	3.5	11.05959263557
17	5258	3.51	11.076878268792
17	5293	3.52	11.093996032622
17	5328	3.53	11.110949184118
17	5329	3.54	11.127740917769
17	5330	3.55	11.144374366731
17	5365	3.56	11.160852604011
17	5366	3.57	11.177178643651
17	5367	3.58	11.193355441874
17	5368	3.59	11.209385898214
17	5369	3.6	11.225272856619
17	5408	3.61	11.241019106534
17	5443	3.62	11.256627383961
17	5478	3.63	11.272100372498
17	5479	3.64	11.287440704357
17	5480	3.65	11.302650961369
17	5515	3.66	11.317733675953
17	5516	3.67	11.332691332077
17	5517	3.68	11.347526366203
17	5518	3.69	11.362241168205
17	5519	3.7	11.376838082267
17	5558	3.71	11.391319407775
17	5593	3.72	11.405687400177
17	5628	3.73	11.419944271841
17	5629	3.74	11.434092192881
17	5630	3.75	11.448133291977
17	5665	3.76	11.462069657176
17	5666	3.77	11.475903336674
17	5667	3.78	11.489636339587
17	5668	3.79	11.503270636703
17	5669	3.8	11.516808161227
17	5708	3.81	11.530250809496
17	5743	3.82	11.543600441699
17	5778	3.83	11.556858882564
17	5779	3.84	11.57002792205
17	5780	3.85	11.58310931601
17	5815	3.86	11.596104786849
17	5816	3.87	11.609016024165
17	5817	3.88	11.621844685387
17	5818	3.89	11.634592396383
17	5819	3.9	11.647260752075
17	5858	3.91	11.659851317025
17	5893	3.92	11.672365626028
17	5928	3.93	11.684805184674
17	5929	3.94	11.697171469915
17	5930	3.95	11.70946593061
17	5965	3.96	11.721689988067
17	5966	3.97	11.733845036567
17	5967	3.98	11.745932443885
17	5968	3.99	11.757953551799
17	5973	4	11.769909676584
17	6012	4.01	11.781802109505
17	6047	4.02	11.793632117289
17	6082	4.03	11.805400942602
17	6083	4.04	11.817109804504
17	6084	4.05	11.828759898908
17	6119	4.06	11.840352399008
17	6120	4.07	11.851888455732
17	6121	4.08	11.863369198153
17	6122	4.09	11.874795733911
17	6123	4.1	11.886169149626
17	6162	4.11	11.897490511299
17	6197	4.12	11.908760864699
17	6232	4.13	11.919981235757
17	6233	4.14	11.931152630942
17	6234	4.15	11.942276037629
17	6269	4.16	11.953352424471
17	6270	4.17	11.964382741747
17	6271	4.18	11.975367921722
17	6272	4.19	11.986308878982
17	6273	4.2	11.997206510778
17	6312	4.21	12.008061697349
17	6347	4.22	12.018875302257
17	6382	4.23	12.029648172691
17	6383	4.24	12.040381139793
17	6384	4.25	12.051075018956
17	6419	4.26	12.061730610122
17	6420	4.27	12.072348698081
17	6421	4.28	12.08293005276
17	6422	4.29	12.093475429502
17	6423	4.3	12.103985569348
17	6462	4.31	12.114461199304
17	6497	4.32	12.124903032616
17	6532	4.33	12.135311769019
17	6533	4.34	12.145688095011
17	6534	4.35	12.15603268409
17	6569	4.36	12.16634619701
17	6570	4.37	12.176629282021
17	6571	4.38	12.186882575105
17	6572	4.39	12.197106700211
17	6573	4.4	12.207302269485
17	6612	4.41	12.21746988349
17	6647	4.42	12.227610131434
17	6682	4.43	12.237723591376
17	6683	4.44	12.24781083045
17	6684	4.45	12.257872405056
17	6719	4.46	12.267908861083
17	6720	4.47	12.277920734094
17	6721	4.48	12.28790854953
17	6722	4.49	12.297872822897
17	6723	4.5	12.307814059962
17	6762	4.51	12.317732756929
17	6797	4.52	12.327629400629
17	6832	4.53	12.337504468692
17	6833	4.54	12.347358429726
17	6834	4.55	12.357191743485
17	6869	4.56	12.367004861039
17	6870	4.57	12.376798224936
17	6871	4.58	12.38657226937
17	6872	4.59	12.396327420334
17	6873	4.6	12.406064095777
17	6912	4.61	12.415782705759
17	6947	4.62	12.425483652596
17	6982	4.63	12.435167331014
17	6983	4.64	12.444834128285
17	6984	4.65	12.454484424373
17	7019	4.66	12.464118592074
17	7020	4.67	12.473736997147
17	7021	4.68	12.483339998454
17	7022	4.69	12.492927948087
17	7023	4.7	12.502501191495
17	7062	4.71	12.512060067612
17	7097	4.72	12.521604908984
17	7132	4.73	12.531136041882
17	7133	4.74	12.540653786427
17	7134	4.75	12.550158456708
17	7169	4.76	12.559650360893
17	7170	4.77	12.56912980134
17	7171	4.78	12.578597074712
17	7172	4.79	12.588052472081
17	7173	4.8	12.597496279033
17	7212	4.81	12.606928775779
17	7247	4.82	12.61635023725
17	7282	4.83	12.625760933199
17	7283	4.84	12.635161128302
17	7284	4.85	12.644551082249
17	7319	4.86	12.653931049843
17	7320	4.87	12.663301281092
17	7321	4.88	12.672662021297
17	7322	4.89	12.682013511146
17	7323	4.9	12.691355986794
[...]
2	62691	55.23	931.55726268403
2	62692	55.24	931.69615168374
2	62693	55.25	931.83504068346
2	62712	55.26	931.97392968317
2	62713	55.27	932.11281868289
2	62714	55.28	932.2517076826
2	62715	55.29	932.39059668231
2	62716	55.3	932.52948568203
2	62719	55.31	932.66837468175
2	62720	55.32	932.80726368146
2	62739	55.33	932.94615268118
2	62740	55.34	933.0850416809
2	62741	55.35	933.22393068061
2	62760	55.36	933.36281968033
2	62761	55.37	933.50170868005
2	62762	55.38	933.64059767977
2	62763	55.39	933.77948667949
2	62764	55.4	933.91837567921
2	62767	55.41	934.05726467893
2	62768	55.42	934.19615367865
2	62787	55.43	934.33504267837
2	62788	55.44	934.47393167809
2	62789	55.45	934.61282067782
2	62808	55.46	934.75170967754
2	62809	55.47	934.89059867726
2	62810	55.48	935.02948767698
2	62811	55.49	935.16837667671
2	62812	55.5	935.30726567643
2	62815	55.51	935.44615467616
2	62816	55.52	935.58504367588
2	62835	55.53	935.72393267561
2	62836	55.54	935.86282167533
2	62837	55.55	936.00171067506
2	62856	55.56	936.14059967479
2	62857	55.57	936.27948867451
2	62858	55.58	936.41837767424
2	62859	55.59	936.55726667397
2	62860	55.6	936.6961556737
2	62863	55.61	936.83504467343
2	62864	55.62	936.97393367316
2	62883	55.63	937.11282267289
2	62884	55.64	937.25171167262
2	62885	55.65	937.39060067235
2	62904	55.66	937.52948967208
2	62905	55.67	937.66837867181
2	62906	55.68	937.80726767154
2	62907	55.69	937.94615667127
2	62908	55.7	938.08504567101
2	62911	55.71	938.22393467074
2	62912	55.72	938.36282367047
2	62931	55.73	938.50171267021
2	62932	55.74	938.64060166994
2	62933	55.75	938.77949066968
2	62952	55.76	938.91837966941
2	62953	55.77	939.05726866915
2	62954	55.78	939.19615766888
2	62955	55.79	939.33504666862
2	62956	55.8	939.47393566836
2	62959	55.81	939.61282466809
2	62960	55.82	939.75171366783
2	62979	55.83	939.89060266757
2	62980	55.84	940.02949166731
2	62981	55.85	940.16838066705
2	63000	55.86	940.30726966679
2	63001	55.87	940.44615866653
2	63002	55.88	940.58504766627
2	63003	55.89	940.72393666601
2	63004	55.9	940.86282566575
2	63007	55.91	941.00171466549
2	63008	55.92	941.14060366523
2	63027	55.93	941.27949266497
2	63028	55.94	941.41838166472
2	63029	55.95	941.55727066446
2	63048	55.96	941.6961596642
2	63049	55.97	941.83504866395
2	63050	55.98	941.97393766369
2	63051	55.99	942.11282666343
2	63054	56	942.25171566318
2	63057	56.01	942.39060466292
2	63058	56.02	942.52949366267
2	63077	56.03	942.66838266242
2	63078	56.04	942.80727166216
2	63079	56.05	942.94616066191
2	63098	56.06	943.08504966166
2	63099	56.07	943.2239386614
2	63100	56.08	943.36282766115
2	63101	56.09	943.5017166609
2	63102	56.1	943.64060566065
2	63105	56.11	943.7794946604
2	63106	56.12	943.91838366015
2	63125	56.13	944.0572726599
2	63126	56.14	944.19616165965
2	63127	56.15	944.3350506594
2	63146	56.16	944.47393965915
2	63147	56.17	944.6128286589
2	63148	56.18	944.75171765866
2	63149	56.19	944.89060665841
2	63150	56.2	945.02949565816
2	63153	56.21	945.16838465791
2	63154	56.22	945.30727365767
2	63173	56.23	945.44616265742
2	63174	56.24	945.58505165718
2	63175	56.25	945.72394065693
2	63194	56.26	945.86282965669
2	63195	56.27	946.00171865644
2	63196	56.28	946.1406076562
2	63197	56.29	946.27949665595
2	63198	56.3	946.41838565571
2	63201	56.31	946.55727465547
2	63202	56.32	946.69616365522
2	63221	56.33	946.83505265498
2	63222	56.34	946.97394165474
2	63223	56.35	947.1128306545
2	63242	56.36	947.25171965426
2	63243	56.37	947.39060865402
2	63244	56.38	947.52949765378
2	63245	56.39	947.66838665354
2	63246	56.4	947.8072756533
2	63249	56.41	947.94616465306
2	63250	56.42	948.08505365282
2	63269	56.43	948.22394265258
2	63270	56.44	948.36283165234
2	63271	56.45	948.5017206521
2	63290	56.46	948.64060965187
2	63291	56.47	948.77949865163
2	63292	56.48	948.91838765139
2	63293	56.49	949.05727665116
2	63294	56.5	949.19616565092
2	63297	56.51	949.33505465069
2	63298	56.52	949.47394365045
2	63317	56.53	949.61283265022
2	63318	56.54	949.75172164998
2	63319	56.55	949.89061064975
2	63338	56.56	950.02949964951
2	63339	56.57	950.16838864928
2	63340	56.58	950.30727764905
2	63341	56.59	950.44616664881
2	63342	56.6	950.58505564858
2	63345	56.61	950.72394464835
2	63346	56.62	950.86283364812
2	63365	56.63	951.00172264789
2	63366	56.64	951.14061164766
2	63367	56.65	951.27950064743
2	63386	56.66	951.4183896472
2	63387	56.67	951.55727864697
2	63388	56.68	951.69616764674
2	63389	56.69	951.83505664651
2	63390	56.7	951.97394564628
2	63393	56.71	952.11283464605
2	63394	56.72	952.25172364582
2	63413	56.73	952.3906126456
2	63414	56.74	952.52950164537
2	63415	56.75	952.66839064514
2	63434	56.76	952.80727964491
2	63435	56.77	952.94616864469
2	63436	56.78	953.08505764446
2	63437	56.79	953.22394664424
2	63438	56.8	953.36283564401
2	63441	56.81	953.50172464379
2	63442	56.82	953.64061364356
2	63461	56.83	953.77950264334
2	63462	56.84	953.91839164312
2	63463	56.85	954.05728064289
2	63482	56.86	954.19616964267
2	63483	56.87	954.33505864245
2	63484	56.88	954.47394764222
2	63485	56.89	954.612836642
2	63486	56.9	954.75172564178
2	63489	56.91	954.89061464156
2	63490	56.92	955.02950364134
2	63509	56.93	955.16839264112
2	63510	56.94	955.3072816409
2	63511	56.95	955.44617064068
2	63530	56.96	955.58505964046
2	63531	56.97	955.72394864024
2	63532	56.98	955.86283764002
2	63533	56.99	956.0017266398
2	63536	57	956.14061563958
2	63539	57.01	956.27950463937
2	63540	57.02	956.41839363915
2	63559	57.03	956.55728263893
2	63560	57.04	956.69617163871
2	63561	57.05	956.8350606385
2	63580	57.06	956.97394963828
2	63581	57.07	957.11283863806
2	63582	57.08	957.25172763785
2	63583	57.09	957.39061663763
2	63584	57.1	957.52950563742
2	63587	57.11	957.66839463721
2	63588	57.12	957.80728363699
2	63607	57.13	957.94617263678
2	63608	57.14	958.08506163656
2	63609	57.15	958.22395063635
2	63628	57.16	958.36283963614
2	63629	57.17	958.50172863593
2	63630	57.18	958.64061763571
2	63631	57.19	958.7795066355
2	63632	57.2	958.91839563529
2	63635	57.21	959.05728463508
2	63636	57.22	959.19617363487
2	63655	57.23	959.33506263466
2	63656	57.24	959.47395163445
2	63657	57.25	959.61284063424
2	63676	57.26	959.75172963403
2	63677	57.27	959.89061863382
2	63678	57.28	960.02950763361
2	63679	57.29	960.1683966334
2	63680	57.3	960.30728563319
2	63683	57.31	960.44617463299
2	63684	57.32	960.58506363278
2	63703	57.33	960.72395263257
2	63704	57.34	960.86284163236
2	63705	57.35	961.00173063216
2	63724	57.36	961.14061963195
2	63725	57.37	961.27950863174
2	63726	57.38	961.41839763154
2	63727	57.39	961.55728663133
2	63728	57.4	961.69617563113
2	63731	57.41	961.83506463092
2	63732	57.42	961.97395363072
2	63751	57.43	962.11284263052
2	63752	57.44	962.25173163031
2	63753	57.45	962.39062063011
2	63772	57.46	962.52950962991
2	63773	57.47	962.6683986297
2	63774	57.48	962.8072876295
2	63775	57.49	962.9461766293
2	63776	57.5	963.0850656291
2	63779	57.51	963.22395462889
2	63780	57.52	963.36284362869
2	63799	57.53	963.50173262849
2	63800	57.54	963.64062162829
2	63801	57.55	963.77951062809
2	63820	57.56	963.91839962789
2	63821	57.57	964.05728862769
2	63822	57.58	964.19617762749
2	63823	57.59	964.33506662729
2	63824	57.6	964.4739556271
2	63827	57.61	964.6128446269
2	63828	57.62	964.7517336267
2	63847	57.63	964.8906226265
2	63848	57.64	965.0295116263
2	63849	57.65	965.16840062611
2	63868	57.66	965.30728962591
2	63869	57.67	965.44617862571
2	63870	57.68	965.58506762552
2	63871	57.69	965.72395662532
2	63872	57.7	965.86284562513
2	63875	57.71	966.00173462493
2	63876	57.72	966.14062362474
2	63895	57.73	966.27951262454
2	63896	57.74	966.41840162435
2	63897	57.75	966.55729062415
2	63916	57.76	966.69617962396
2	63917	57.77	966.83506862377
2	63918	57.78	966.97395762357
2	63919	57.79	967.11284662338
2	63920	57.8	967.25173562319
2	63923	57.81	967.39062462299
2	63924	57.82	967.5295136228
2	63943	57.83	967.66840262261
2	63944	57.84	967.80729162242
2	63945	57.85	967.94618062223
2	63964	57.86	968.08506962204
2	63965	57.87	968.22395862185
2	63966	57.88	968.36284762166
2	63967	57.89	968.50173662147
2	63968	57.9	968.64062562128
2	63971	57.91	968.77951462109
2	63972	57.92	968.9184036209
2	63991	57.93	969.05729262071
2	63992	57.94	969.19618162052
2	63993	57.95	969.33507062033
2	64012	57.96	969.47395962015
2	64013	57.97	969.61284861996
2	64014	57.98	969.75173761977
2	64015	57.99	969.89062661958
2	64018	58	970.0295156194
2	64021	58.01	970.16840461921
2	64022	58.02	970.30729361903
2	64041	58.03	970.44618261884
2	64042	58.04	970.58507161865
2	64043	58.05	970.72396061847
2	64062	58.06	970.86284961828
2	64063	58.07	971.0017386181
2	64064	58.08	971.14062761791
2	64065	58.09	971.27951661773
2	64066	58.1	971.41840561755
2	64069	58.11	971.55729461736
2	64070	58.12	971.69618361718
2	64089	58.13	971.835072617
2	64090	58.14	971.97396161681
2	64091	58.15	972.11285061663
2	64110	58.16	972.25173961645
2	64111	58.17	972.39062861627
2	64112	58.18	972.52951761609
2	64113	58.19	972.66840661591
2	64114	58.2	972.80729561573
2	64117	58.21	972.94618461554
2	64118	58.22	973.08507361536
2	64137	58.23	973.22396261518
2	64138	58.24	973.362851615
2	64139	58.25	973.50174061482
2	64158	58.26	973.64062961465
2	64159	58.27	973.77951861447
2	64160	58.28	973.91840761429
2	64161	58.29	974.05729661411
2	64162	58.3	974.19618561393
2	64165	58.31	974.33507461375
2	64166	58.32	974.47396361358
2	64185	58.33	974.6128526134
2	64186	58.34	974.75174161322
2	64187	58.35	974.89063061304
2	64206	58.36	975.02951961287
2	64207	58.37	975.16840861269
2	64208	58.38	975.30729761252
2	64209	58.39	975.44618661234
2	64210	58.4	975.58507561217
2	64213	58.41	975.72396461199
2	64214	58.42	975.86285361182
2	64233	58.43	976.00174261164
2	64234	58.44	976.14063161147
2	64235	58.45	976.27952061129
2	64254	58.46	976.41840961112
2	64255	58.47	976.55729861095
2	64256	58.48	976.69618761077
2	64257	58.49	976.8350766106
2	64258	58.5	976.97396561043
2	64261	58.51	977.11285461025
2	64262	58.52	977.25174361008
2	64281	58.53	977.39063260991
2	64282	58.54	977.52952160974
2	64283	58.55	977.66841060957
2	64302	58.56	977.8072996094
2	64303	58.57	977.94618860923
2	64304	58.58	978.08507760906
2	64305	58.59	978.22396660889
2	64306	58.6	978.36285560872
2	64309	58.61	978.50174460855
2	64310	58.62	978.64063360838
2	64329	58.63	978.77952260821
2	64330	58.64	978.91841160804
2	64331	58.65	979.05730060787
2	64350	58.66	979.1961896077
2	64351	58.67	979.33507860753
2	64352	58.68	979.47396760736
2	64353	58.69	979.6128566072
2	64354	58.7	979.75174560703
2	64357	58.71	979.89063460686
2	64358	58.72	980.0295236067
2	64377	58.73	980.16841260653
2	64378	58.74	980.30730160636
2	64379	58.75	980.4461906062
2	64398	58.76	980.58507960603
2	64399	58.77	980.72396860587
2	64400	58.78	980.8628576057
2	64401	58.79	981.00174660554
2	64402	58.8	981.14063560537
2	64405	58.81	981.27952460521
2	64406	58.82	981.41841360504
2	64425	58.83	981.55730260488
2	64426	58.84	981.69619160471
2	64427	58.85	981.83508060455
2	64446	58.86	981.97396960439
2	64447	58.87	982.11285860422
2	64448	58.88	982.25174760406
2	64449	58.89	982.3906366039
2	64450	58.9	982.52952560374
2	64453	58.91	982.66841460358
2	64454	58.92	982.80730360341
2	64473	58.93	982.94619260325
2	64474	58.94	983.08508160309
2	64475	58.95	983.22397060293
2	64494	58.96	983.36285960277
2	64495	58.97	983.50174860261
2	64496	58.98	983.64063760245
2	64497	58.99	983.77952660229
2	64500	59	983.91841560213
2	64503	59.01	984.05730460197
2	64504	59.02	984.19619360181
2	64523	59.03	984.33508260165
2	64524	59.04	984.47397160149
2	64525	59.05	984.61286060133
2	64544	59.06	984.75174960118
2	64545	59.07	984.89063860102
2	64546	59.08	985.02952760086
2	64547	59.09	985.1684166007
2	64548	59.1	985.30730560055
2	64551	59.11	985.44619460039
2	64552	59.12	985.58508360023
2	64571	59.13	985.72397260008
2	64572	59.14	985.86286159992
2	64573	59.15	986.00175059976
2	64592	59.16	986.14063959961
2	64593	59.17	986.27952859945
2	64594	59.18	986.4184175993
2	64595	59.19	986.55730659914
2	64596	59.2	986.69619559899
2	64599	59.21	986.83508459883
2	64600	59.22	986.97397359868
2	64619	59.23	987.11286259852
2	64620	59.24	987.25175159837
2	64621	59.25	987.39064059822
2	64640	59.26	987.52952959806
2	64641	59.27	987.66841859791
2	64642	59.28	987.80730759776
2	64643	59.29	987.94619659761
2	64644	59.3	988.08508559745
2	64647	59.31	988.2239745973
2	64648	59.32	988.36286359715
2	64667	59.33	988.501752597
2	64668	59.34	988.64064159685
2	64669	59.35	988.77953059669
2	64688	59.36	988.91841959654
2	64689	59.37	989.05730859639
2	64690	59.38	989.19619759624
2	64691	59.39	989.33508659609
2	64692	59.4	989.47397559594
2	64695	59.41	989.61286459579
2	64696	59.42	989.75175359564
2	64715	59.43	989.89064259549
2	64716	59.44	990.02953159534
2	64717	59.45	990.1684205952
2	64736	59.46	990.30730959505
2	64737	59.47	990.4461985949
2	64738	59.48	990.58508759475
2	64739	59.49	990.7239765946
2	64740	59.5	990.86286559446
2	64743	59.51	991.00175459431
2	64744	59.52	991.14064359416
2	64763	59.53	991.27953259401
2	64764	59.54	991.41842159387
2	64765	59.55	991.55731059372
2	64784	59.56	991.69619959357
2	64785	59.57	991.83508859343
2	64786	59.58	991.97397759328
2	64787	59.59	992.11286659314
2	64788	59.6	992.25175559299
2	64791	59.61	992.39064459285
2	64792	59.62	992.5295335927
2	64811	59.63	992.66842259256
2	64812	59.64	992.80731159241
2	64813	59.65	992.94620059227
2	64832	59.66	993.08508959212
2	64833	59.67	993.22397859198
2	64834	59.68	993.36286759183
2	64835	59.69	993.50175659169
2	64836	59.7	993.64064559155
2	64839	59.71	993.77953459141
2	64840	59.72	993.91842359126
2	64859	59.73	994.05731259112
2	64860	59.74	994.19620159098
2	64861	59.75	994.33509059084
2	64880	59.76	994.47397959069
2	64881	59.77	994.61286859055
2	64882	59.78	994.75175759041
2	64883	59.79	994.89064659027
2	64884	59.8	995.02953559013
2	64887	59.81	995.16842458999
2	64888	59.82	995.30731358985
2	64907	59.83	995.44620258971
2	64908	59.84	995.58509158957
2	64909	59.85	995.72398058943
2	64928	59.86	995.86286958929
2	64929	59.87	996.00175858915
2	64930	59.88	996.14064758901
2	64931	59.89	996.27953658887
2	64932	59.9	996.41842558873
2	64935	59.91	996.55731458859
2	64936	59.92	996.69620358845
2	64955	59.93	996.83509258832
2	64956	59.94	996.97398158818
2	64957	59.95	997.11287058804
2	64976	59.96	997.2517595879
2	64977	59.97	997.39064858777
2	64978	59.98	997.52953758763
2	64979	59.99	997.66842658749
2	64982	60	997.80731558736
2	64985	60.01	997.94620458722
2	64986	60.02	998.08509358708
2	65005	60.03	998.22398258695
2	65006	60.04	998.36287158681
2	65007	60.05	998.50176058668
2	65026	60.06	998.64064958654
2	65027	60.07	998.77953858641
2	65028	60.08	998.91842758627
2	65029	60.09	999.05731658614
2	65030	60.1	999.196205586
2	65033	60.11	999.33509458587
2	65034	60.12	999.47398358573
2	65053	60.13	999.6128725856
2	65054	60.14	999.75176158547
2	65055	60.15	999.89065058533
2	65074	60.16	1000.0295395852
2	65075	60.17	1000.1684285851
2	65076	60.18	1000.3073175849
2	65077	60.19	1000.4462065848
2	65078	60.2	1000.5850955847
2	65081	60.21	1000.7239845845
2	65082	60.22	1000.8628735844
2	65101	60.23	1001.0017625843
2	65102	60.24	1001.1406515841
2	65103	60.25	1001.279540584
2	65122	60.26	1001.4184295839
2	65123	60.27	1001.5573185837
2	65124	60.28	1001.6962075836
2	65125	60.29	1001.8350965835
2	65126	60.3	1001.9739855834
2	65129	60.31	1002.1128745832
2	65130	60.32	1002.2517635831
2	65149	60.33	1002.390652583
2	65150	60.34	1002.5295415828
2	65151	60.35	1002.6684305827
2	65170	60.36	1002.8073195826
2	65171	60.37	1002.9462085824
2	65172	60.38	1003.0850975823
2	65173	60.39	1003.2239865822
2	65174	60.4	1003.3628755821
2	65177	60.41	1003.5017645819
2	65178	60.42	1003.6406535818
2	65197	60.43	1003.7795425817
2	65198	60.44	1003.9184315816
2	65199	60.45	1004.0573205814
2	65218	60.46	1004.1962095813
2	65219	60.47	1004.3350985812
2	65220	60.48	1004.473987581
2	65221	60.49	1004.6128765809
2	65222	60.5	1004.7517655808
2	65225	60.51	1004.8906545807
2	65226	60.52	1005.0295435805
2	65245	60.53	1005.1684325804
2	65246	60.54	1005.3073215803
2	65247	60.55	1005.4462105802
2	65266	60.56	1005.58509958
2	65267	60.57	1005.7239885799
2	65268	60.58	1005.8628775798
2	65269	60.59	1006.0017665797
2	65270	60.6	1006.1406555795
2	65273	60.61	1006.2795445794
2	65274	60.62	1006.4184335793
2	65293	60.63	1006.5573225792
2	65294	60.64	1006.696211579
2	65295	60.65	1006.8351005789
2	65314	60.66	1006.9739895788
2	65315	60.67	1007.1128785787
2	65316	60.68	1007.2517675786
2	65317	60.69	1007.3906565784
2	65318	60.7	1007.5295455783
2	65321	60.71	1007.6684345782
2	65322	60.72	1007.8073235781
2	65341	60.73	1007.9462125779
2	65342	60.74	1008.0851015778
2	65343	60.75	1008.2239905777
2	65362	60.76	1008.3628795776
2	65363	60.77	1008.5017685775
2	65364	60.78	1008.6406575773
2	65365	60.79	1008.7795465772
2	65366	60.8	1008.9184355771
2	65369	60.81	1009.057324577
2	65370	60.82	1009.1962135769
2	65389	60.83	1009.3351025767
2	65390	60.84	1009.4739915766
2	65391	60.85	1009.6128805765
2	65410	60.86	1009.7517695764
2	65411	60.87	1009.8906585763
2	65412	60.88	1010.0295475761
2	65413	60.89	1010.168436576
2	65414	60.9	1010.3073255759
2	65417	60.91	1010.4462145758
2	65418	60.92	1010.5851035757
2	65437	60.93	1010.7239925755
2	65438	60.94	1010.8628815754
2	65439	60.95	1011.0017705753
2	65458	60.96	1011.1406595752
2	65459	60.97	1011.2795485751
2	65460	60.98	1011.418437575
2	65461	60.99	1011.5573265748
2	65464	61	1011.6962155747
2	65467	61.01	1011.8351045746
2	65468	61.02	1011.9739935745
2	65487	61.03	1012.1128825744
2	65488	61.04	1012.2517715743
2	65489	61.05	1012.3906605741
2	65508	61.06	1012.529549574
2	65509	61.07	1012.6684385739
2	65510	61.08	1012.8073275738
2	65511	61.09	1012.9462165737
2	65512	61.1	1013.0851055736
2	65515	61.11	1013.2239945734
2	65516	61.12	1013.3628835733
2	65535	61.13	1013.5017725732
2	65536	61.14	1013.6406615731
2	65537	61.15	1013.779550573
2	65556	61.16	1013.9184395729
2	65557	61.17	1014.0573285728
2	65558	61.18	1014.1962175726
2	65559	61.19	1014.3351065725
2	65560	61.2	1014.4739955724
2	65563	61.21	1014.6128845723
2	65564	61.22	1014.7517735722
2	65583	61.23	1014.8906625721
2	65584	61.24	1015.029551572
2	65585	61.25	1015.1684405719
2	65604	61.26	1015.3073295717
2	65605	61.27	1015.4462185716
2	65606	61.28	1015.5851075715
2	65607	61.29	1015.7239965714
2	65608	61.3	1015.8628855713
2	65611	61.31	1016.0017745712
2	65612	61.32	1016.1406660221
2	65623	61.33	1016.2795647778
2	65624	61.34	1016.4184755972
2	65625	61.35	1016.5574031456
2	65626	61.36	1016.6963519969
2	65627	61.37	1016.8353266355
2	65628	61.38	1016.9743314577
2	65629	61.39	1017.1133707735
2	65630	61.4	1017.2524488086
2	65632	61.41	1017.3915697058
2	65633	61.42	1017.5307375265
2	65644	61.43	1017.6699562528
2	65645	61.44	1017.8092297883
2	65646	61.45	1017.9485619604
2	65647	61.46	1018.0879565212
2	65648	61.47	1018.2274171495
2	65649	61.48	1018.3669474518
2	65650	61.49	1018.5065509638
2	65651	61.5	1018.646231152
2	65653	61.51	1018.785991415
2	65654	61.52	1018.9258350845
2	65665	61.53	1019.0657654273
2	65666	61.54	1019.2057856456
2	65667	61.55	1019.3458988793
2	65668	61.56	1019.4861082064
2	65669	61.57	1019.6264166448
2	65670	61.58	1019.766827153
2	65671	61.59	1019.9073426316
2	65672	61.6	1020.0479659244
2	65674	61.61	1020.1886998192
2	65675	61.62	1020.3295470495
2	65686	61.63	1020.4705102949
2	65687	61.64	1020.6115921824
2	65688	61.65	1020.7527952879
2	65689	61.66	1020.8941221364
2	65690	61.67	1021.0355752036
2	65691	61.68	1021.1771569165
2	65692	61.69	1021.3188696547
2	65693	61.7	1021.4607157509
2	65695	61.71	1021.6026974923
2	65696	61.72	1021.7448171211
2	65707	61.73	1021.8870768356
2	65708	61.74	1022.029478791
2	65709	61.75	1022.1720251002
2	65710	61.76	1022.3147178347
2	65711	61.77	1022.4575590254
2	65712	61.78	1022.6005506634
2	65713	61.79	1022.7436947006
2	65714	61.8	1022.8869930508
2	65716	61.81	1023.0304475902
2	65717	61.82	1023.1740601582
2	65728	61.83	1023.3178325583
2	65729	61.84	1023.4617665583
2	65730	61.85	1023.6058638917
2	65731	61.86	1023.7501262577
2	65732	61.87	1023.8945553225
2	65733	61.88	1024.0391527193
2	65734	61.89	1024.1839200495
2	65735	61.9	1024.328858883
2	65737	61.91	1024.473970759
2	65738	61.92	1024.6192571865
2	65749	61.93	1024.7647196448

