version 3
run OvertakeNoGui-227-20241104-10:03:23-91407
attr configname OvertakeNoGui
attr datetime 20241104-10:03:23
attr datetimef 20241104-100323
attr experiment OvertakeNoGui
attr inifile omnetpp.ini
attr iterationvars "$leaderHeadway=1.2, $leaderSpeed=50, $controller=0, $pCSpeed=55, $pDeltaC=504"
attr iterationvarsd leaderHeadway=1.2/leaderSpeed=50/controller=0/pCSpeed=55/pDeltaC=504
attr iterationvarsf leaderHeadway=1.2,leaderSpeed=50,controller=0,pCSpeed=55,pDeltaC=504-
attr measurement "$leaderHeadway=1.2, $leaderSpeed=50, $controller=0, $pCSpeed=55, $pDeltaC=504"
attr network Overtake
attr processid 91407
attr repetition 0
attr replication #0
attr resultdir results
attr runnumber 227
attr seedset 0
itervar controller 0
itervar leaderHeadway 1.2
itervar leaderSpeed 50
itervar pCSpeed 55
itervar pDeltaC 504
config image-path ../../../../veins/images;../../images
config *.manager.command "\"sumo\""
config *.manager.ignoreGuiCommands true
config *.node[*].scenario_type "\"OvertakeScenario\""
config output-vector-file results/OvertakeNoGui_55_504_0.vec
config output-scalar-file results/OvertakeNoGui_55_504_0.sca
config cmdenv-express-mode false
config cmdenv-autoflush true
config cmdenv-status-frequency 10s
config num-rngs 6
config cmdenv-output-file log.txt
config cmdenv-redirect-output true
config network Overtake
config debug-on-errors true
config print-undisposed true
config *.playgroundSizeX 65000m
config *.playgroundSizeY 25000m
config *.playgroundSizeZ 50m
config sim-time-limit "360 s"
config *.annotations.draw false
config *.obstacles.debug false
config *.world.useTorus false
config *.world.use2D false
config *.manager.updateInterval 0.01s
config *.manager.host "\"localhost\""
config *.manager.moduleType "\"vtypeauto=org.car2x.plexe.PlatoonCar vtypehuman=0\""
config *.manager.moduleName "\"vtypeauto=node vtypehuman=0\""
config *.manager.moduleDisplayString "\"\""
config *.manager.autoShutdown true
config *.manager.margin 25
config *.manager.order -1
config *.connectionManager.sendDirect true
config *.connectionManager.maxInterfDist 2600m
config *.connectionManager.drawMaxIntfDist false
config *.**.nic.mac1609_4.useServiceChannel false
config *.**.nic.mac1609_4.txPower 100mW
config *.**.nic.mac1609_4.bitrate 6Mbps
config *.**.nic.mac1609_4.useAcks true
config *.**.nic.mac1609_4.ackErrorRate 0.0
config *.**.nic.mac1609_4.frameErrorRate 0.0
config *.**.nic.phy80211p.minPowerLevel -94dBm
config *.**.nic.phy80211p.maxTXPower 100mW
config *.**.nic.phy80211p.useNoiseFloor true
config *.**.nic.phy80211p.noiseFloor -95dBm
config *.**.nic.phy80211p.decider "xmldoc(\"config.xml\")"
config *.**.nic.phy80211p.analogueModels "xmldoc(\"config.xml\")"
config *.**.nic.phy80211p.usePropagationDelay true
config *.node[*].mobility.x 0
config *.node[*].mobility.y 0
config *.node[*].mobility.z 1.895
config *.shockwave[*].mobility.x 0
config *.shockwave[*].mobility.y 0
config *.shockwave[*].mobility.z 1.895
config seed-set 0
config **.seed 0
config *.node[*].prot.rng-0 2
config *.node[*].appl.rng-0 3
config *.node[*].scenario.rng-0 4
config *.manager.configFile "\"./sumocfg/overtake.sumo.cfg\""
config *.manager.launchConfig "xmldoc(\"./sumocfg/overtake.launchd.xml\")"
config *.node[*].helper_type "\"PositionHelper\""
config *.node[*].scenario.caccC1 0.5
config *.node[*].scenario.caccXi 1
config *.node[*].scenario.caccOmegaN "0.2 Hz"
config *.node[*].scenario.caccSpacing "5 m"
config *.node[*].scenario.engineTau "0.5 s"
config *.node[*].scenario.ploegH "0.5 s"
config *.node[*].scenario.ploegKp 0.2
config *.node[*].scenario.ploegKd 0.7
config *.node[*].scenario.useRealisticEngine false
config *.node[*].scenario.targetController "\"CACC\""
config *.node[*].scenario.accHeadway "0.1 s"
config *.node[*].scenario.leaderHeadway "1.2 s"
config *.node[*].scenario.leaderSpeed "50 kmph"
config *.node[*].appl_type "\"OvertakeApp\""
config *.node[*].appl.*.scalar-recording true
config *.node[*].appl.*.vector-recording true
config *.node[*].appl.overtakeManeuver "\"OvertakeManeuver\""
config *.node[*].protocol_type "\"SimplePlatooningBeaconing\""
config *.node[*].prot.*.scalar-recording true
config *.node[*].prot.*.vector-recording true
config *.node[*].prot.beaconingInterval "0.1 s"
config *.node[*].prot.priority 4
config *.node[*].prot.packetSize 200
config *.node[*].prot.useControllerAcceleration true
config **.traffic_type "\"OvertakeTrafficManager\""
config **.traffic.platoonInsertTime "0.1 s"
config **.traffic.platooningVType "\"vtypeauto\""
config **.numericController 0
config **.traffic.platoonInsertDistance 5m
config **.traffic.platoonInsertHeadway 0s
config **.traffic.platoonLeaderHeadway 1.2s
config **.traffic.platoonASpeed 50kmph
config **.traffic.platoonBSpeed 100kmph
config **.traffic.platoonCSpeed 55kmph
config **.traffic.platoonSizeA 2
config **.traffic.platoonSizeB 1
config **.traffic.platoonSizeC 1
config **.traffic.initialPositionDeltaA 150
config **.traffic.initialPositionDeltaB 50
config **.traffic.initialPositionDeltaC 504
config **.traffic.controller "\"CACC\""
config **.scalar-recording true
config **.vector-recording true

vector 0 Overtake.node[0].mobility posx ETV
vector 1 Overtake.node[0].mobility posy ETV
vector 2 Overtake.node[1].mobility posx ETV
vector 3 Overtake.node[1].mobility posy ETV
vector 4 Overtake.node[2].mobility posx ETV
vector 5 Overtake.node[2].mobility posy ETV
vector 6 Overtake.node[3].mobility posx ETV
vector 7 Overtake.node[3].mobility posy ETV
vector 8 Overtake.node[0].mobility speed ETV
vector 9 Overtake.node[1].mobility speed ETV
vector 10 Overtake.node[2].mobility speed ETV
vector 11 Overtake.node[3].mobility speed ETV
vector 12 Overtake.node[0].mobility acceleration ETV
vector 13 Overtake.node[0].mobility co2emission ETV
vector 14 Overtake.node[1].mobility acceleration ETV
vector 15 Overtake.node[1].mobility co2emission ETV
vector 16 Overtake.node[2].mobility acceleration ETV
vector 17 Overtake.node[2].mobility co2emission ETV
vector 18 Overtake.node[3].mobility acceleration ETV
vector 19 Overtake.node[3].mobility co2emission ETV
vector 20 Overtake.node[0].appl distance ETV
vector 21 Overtake.node[0].appl relativeSpeed ETV
vector 22 Overtake.node[0].appl nodeId ETV
vector 23 Overtake.node[0].appl acceleration ETV
vector 24 Overtake.node[0].appl controllerAcceleration ETV
vector 25 Overtake.node[0].appl speed ETV
vector 26 Overtake.node[0].appl posx ETV
vector 27 Overtake.node[0].appl posy ETV
vector 28 Overtake.node[1].appl distance ETV
vector 29 Overtake.node[1].appl relativeSpeed ETV
vector 30 Overtake.node[1].appl nodeId ETV
vector 31 Overtake.node[1].appl acceleration ETV
vector 32 Overtake.node[1].appl controllerAcceleration ETV
vector 33 Overtake.node[1].appl speed ETV
vector 34 Overtake.node[1].appl posx ETV
vector 35 Overtake.node[1].appl posy ETV
vector 36 Overtake.node[2].appl distance ETV
vector 37 Overtake.node[2].appl relativeSpeed ETV
vector 38 Overtake.node[2].appl nodeId ETV
vector 39 Overtake.node[2].appl acceleration ETV
vector 40 Overtake.node[2].appl controllerAcceleration ETV
vector 41 Overtake.node[2].appl speed ETV
vector 42 Overtake.node[2].appl posx ETV
vector 43 Overtake.node[2].appl posy ETV
vector 44 Overtake.node[3].appl distance ETV
vector 45 Overtake.node[3].appl relativeSpeed ETV
vector 46 Overtake.node[3].appl nodeId ETV
vector 47 Overtake.node[3].appl acceleration ETV
vector 48 Overtake.node[3].appl controllerAcceleration ETV
vector 49 Overtake.node[3].appl speed ETV
vector 50 Overtake.node[3].appl posx ETV
vector 51 Overtake.node[3].appl posy ETV
vector 52 Overtake.node[1].prot leaderDelay ETV
vector 53 Overtake.node[1].prot leaderDelayId ETV
vector 54 Overtake.node[1].prot frontDelay ETV
vector 55 Overtake.node[1].prot frontDelayId ETV
vector 56 Overtake.node[0].prot nodeId ETV
vector 57 Overtake.node[0].prot busyTime ETV
vector 58 Overtake.node[0].prot collisions ETV
vector 59 Overtake.node[1].prot nodeId ETV
vector 60 Overtake.node[1].prot busyTime ETV
vector 61 Overtake.node[1].prot collisions ETV
vector 62 Overtake.node[2].prot nodeId ETV
vector 63 Overtake.node[2].prot busyTime ETV
vector 64 Overtake.node[2].prot collisions ETV
vector 65 Overtake.node[3].prot nodeId ETV
vector 66 Overtake.node[3].prot busyTime ETV
vector 67 Overtake.node[3].prot collisions ETV
48	26	0.21	-0.00218518
48	176	0.31	-0.00213419
48	326	0.41	-0.00205408
48	476	0.51	-0.00195152
48	626	0.61	-0.00183238
48	776	0.71	-0.00170178
48	926	0.81	-0.00156412
48	1076	0.91	-0.00142314
48	1230	1.01	-0.00128196
48	1381	1.11	-0.00114315
48	1532	1.21	-0.00100877
48	1683	1.31	-0.000880447
48	2046	1.41	-0.000759381
48	2196	1.51	-0.000646445
48	2346	1.61	-0.000542204
48	2496	1.71	-0.000446965
48	2646	1.81	-0.000360819
48	2796	1.91	-0.000283678
48	2950	2.01	-0.000215307
48	3100	2.11	-0.000155357
48	3250	2.21	-0.000103391
48	3400	2.31	-5.89069e-05
48	3763	2.41	-2.13575e-05
48	3914	2.51	9.82919e-06
48	4064	2.61	3.52368e-05
48	4214	2.71	5.54479e-05
48	4364	2.81	7.10335e-05
48	4514	2.91	8.25451e-05
48	4668	3.01	9.05081e-05
48	4818	3.11	9.54172e-05
48	4968	3.21	9.7733e-05
48	5118	3.31	9.78798e-05
48	5269	3.41	9.62447e-05
48	5676	3.51	9.31771e-05
48	5826	3.61	8.89894e-05
48	5976	3.71	8.39579e-05
48	6126	3.81	7.83245e-05
48	6276	3.91	7.22983e-05
48	6430	4.01	6.6058e-05
48	6580	4.11	5.9754e-05
48	6730	4.21	5.35107e-05
48	6880	4.31	4.74294e-05
48	7030	4.41	4.15898e-05
48	7393	4.51	3.60534e-05
48	7544	4.61	3.0865e-05
48	7694	4.71	2.60551e-05
48	7844	4.81	2.16419e-05
48	7994	4.91	1.76335e-05
48	8148	5.01	1.40289e-05
48	8298	5.11	1.08202e-05
48	8448	5.21	7.99392e-06
48	8598	5.31	5.532e-06
48	8748	5.41	3.41315e-06
48	8899	5.51	1.61374e-06
48	9262	5.61	1.08654e-07
48	9412	5.71	-1.12799e-06
48	9562	5.81	-2.12224e-06
48	9712	5.91	-2.89981e-06
48	9866	6.01	-3.48567e-06
48	10016	6.11	-3.90376e-06
48	10166	6.21	-4.17673e-06
48	10316	6.31	-4.32574e-06
48	10466	6.41	-4.3704e-06
48	10616	6.51	-4.32865e-06
48	11023	6.61	-4.21676e-06
48	11174	6.71	-4.04934e-06
48	11324	6.81	-3.83937e-06
48	11474	6.91	-3.59826e-06
48	11628	7.01	-3.33592e-06
48	11778	7.11	-3.06089e-06
48	11928	7.21	-2.78036e-06
48	12078	7.31	-2.50036e-06
48	12228	7.41	-2.22582e-06
48	12378	7.51	-1.96068e-06
48	12529	7.61	-1.70801e-06
48	12892	7.71	-1.47009e-06
48	13042	7.81	-1.24855e-06
48	13192	7.91	-1.04441e-06
48	13346	8.01	-8.58219e-07
48	13496	8.11	-6.90082e-07
48	13646	8.21	-5.39774e-07
48	13796	8.31	-4.06788e-07
48	13946	8.41	-2.90397e-07
48	14096	8.51	-1.89707e-07
48	14246	8.61	-1.03704e-07
48	14609	8.71	-3.12912e-08
48	14760	8.81	2.86736e-08
48	14910	8.91	7.73515e-08
48	15064	9.01	1.15897e-07
48	15214	9.11	1.45439e-07
48	15364	9.21	1.67065e-07
48	15514	9.31	1.81809e-07
48	15664	9.41	1.90644e-07
48	15814	9.51	1.94472e-07
48	15964	9.61	1.94124e-07
48	16115	9.71	1.90357e-07
48	16522	9.81	1.83853e-07
48	16672	9.91	1.7522e-07
48	16826	10.01	1.64994e-07
48	16976	10.11	1.53647e-07
48	17126	10.21	1.41582e-07
48	17276	10.31	1.29145e-07
48	17426	10.41	1.16627e-07
48	17576	10.51	1.04265e-07
48	17726	10.61	9.22544e-08
48	17876	10.71	8.07466e-08
48	18239	10.81	6.98579e-08
48	18390	10.91	5.96724e-08
48	18544	11.01	5.02466e-08
48	18694	11.11	4.16129e-08
48	18844	11.21	3.37838e-08
48	18994	11.31	2.67553e-08
48	19144	11.41	2.05096e-08
48	19294	11.51	1.5018e-08
48	19444	11.61	1.02437e-08
48	19594	11.71	6.14335e-09
48	19745	11.81	2.66951e-09
48	20108	11.91	-2.28262e-10
48	20262	12.01	-2.6013e-09
48	20412	12.11	-4.50129e-09
48	20562	12.21	-5.97939e-09
48	20712	12.31	-7.08464e-09
48	20862	12.41	-7.86429e-09
48	21012	12.51	-8.36273e-09
48	21162	12.61	-8.62173e-09
48	21312	12.71	-8.67946e-09
48	21462	12.81	-8.57128e-09
48	21845	12.91	-8.32863e-09
48	22000	13.01	-7.98028e-09
48	22150	13.11	-7.55147e-09
48	22300	13.21	-7.06422e-09
48	22450	13.31	-6.5377e-09
48	22600	13.41	-5.98863e-09
48	22750	13.51	-5.43068e-09
48	22900	13.61	-4.87557e-09
48	23050	13.71	-4.33271e-09
48	23200	13.81	-3.80975e-09
48	23351	13.91	-3.31237e-09
48	23738	14.01	-2.84501e-09
48	23888	14.11	-2.41052e-09
48	24038	14.21	-2.01084e-09
48	24188	14.31	-1.64686e-09
48	24338	14.41	-1.31877e-09
48	24488	14.51	-1.02602e-09
48	24638	14.61	-7.67386e-10
48	24788	14.71	-5.41434e-10
48	24938	14.81	-3.4639e-10
48	25088	14.91	-1.803e-10
48	25242	15.01	-4.06786e-11
48	25392	15.11	7.4607e-11
48	25542	15.21	1.67866e-10
48	25692	15.31	2.41229e-10
48	25842	15.41	2.97184e-10
48	25992	15.51	3.37863e-10
48	26142	15.61	3.65041e-10
48	26292	15.71	3.80851e-10
48	26442	15.81	3.86891e-10
48	26592	15.91	3.85114e-10
48	26746	16.01	3.76588e-10
48	26896	16.11	3.6291e-10
48	27046	16.21	3.45146e-10
48	27196	16.31	3.24363e-10
48	27346	16.41	3.01625e-10
48	27496	16.51	2.77467e-10
48	27646	16.61	2.52598e-10
48	27796	16.71	2.27729e-10
48	27946	16.81	2.03215e-10
48	28096	16.91	1.79412e-10
48	28250	17.01	1.56675e-10
48	28400	17.11	1.35358e-10
48	28550	17.21	1.15286e-10
48	28700	17.31	9.68114e-11
48	28850	17.41	7.99361e-11
48	29000	17.51	6.46594e-11
48	29150	17.61	5.09814e-11
48	29300	17.71	3.89022e-11
48	29450	17.81	2.82441e-11
48	29600	17.91	1.9007e-11
48	29754	18.01	1.10134e-11
48	29904	18.11	4.44089e-12
48	30054	18.21	-1.24345e-12
48	30204	18.31	-5.68434e-12
48	30354	18.41	-9.41469e-12
48	30504	18.51	-1.22569e-11
48	30654	18.61	-1.43885e-11
48	30804	18.71	-1.58096e-11
48	30954	18.81	-1.66978e-11
48	31104	18.91	-1.72307e-11
48	31258	19.01	-1.72307e-11
48	31408	19.11	-1.7053e-11
48	31558	19.21	-1.65201e-11
48	31708	19.31	-1.58096e-11
48	31858	19.41	-1.5099e-11
48	32008	19.51	-1.40332e-11
48	32158	19.61	-1.29674e-11
48	32308	19.71	-1.20792e-11
48	32458	19.81	-1.10134e-11
48	32608	19.91	-9.9476e-12
48	32762	20.01	-8.88178e-12
48	32912	20.11	-7.99361e-12
48	33062	20.21	-6.92779e-12
48	33212	20.31	-5.86198e-12
48	33362	20.41	-4.9738e-12
48	33512	20.51	-4.08562e-12
48	33662	20.61	-3.19744e-12
48	33812	20.71	-2.4869e-12
48	33962	20.81	-1.77636e-12
48	34112	20.91	-1.24345e-12
48	34266	21.01	-7.10543e-13
48	34416	21.11	-1.77636e-13
48	34566	21.21	1.77636e-13
48	34716	21.31	7.10543e-13
48	34866	21.41	1.06581e-12
48	35016	21.51	1.42109e-12
48	35166	21.61	1.59872e-12
48	35316	21.71	1.95399e-12
48	35466	21.81	2.13163e-12
48	35616	21.91	2.30926e-12
48	35770	22.01	2.4869e-12
48	35920	22.11	2.66454e-12
48	36070	22.21	2.84217e-12
48	36220	22.31	3.01981e-12
48	36370	22.41	3.19744e-12
48	36520	22.51	3.37508e-12
48	36670	22.61	3.37508e-12
48	36820	22.71	3.55271e-12
48	36970	22.81	3.55271e-12
48	37120	22.91	3.73035e-12
48	37274	23.01	3.73035e-12
48	37424	23.11	3.90799e-12
48	37574	23.21	3.90799e-12
48	37724	23.31	3.90799e-12
48	37874	23.41	3.90799e-12
48	38024	23.51	4.08562e-12
48	38174	23.61	4.08562e-12
48	38324	23.71	4.08562e-12
48	38474	23.81	4.08562e-12
48	38624	23.91	4.08562e-12
48	38778	24.01	4.26326e-12
48	38928	24.11	4.26326e-12
48	39078	24.21	4.26326e-12
48	39228	24.31	4.26326e-12
48	39378	24.41	4.26326e-12
48	39528	24.51	4.26326e-12
48	39678	24.61	4.26326e-12
48	39828	24.71	4.26326e-12
48	39978	24.81	4.26326e-12
48	40128	24.91	4.26326e-12
48	40282	25.01	4.44089e-12
48	40432	25.11	4.44089e-12
48	40582	25.21	4.44089e-12
48	40732	25.31	4.44089e-12
48	40882	25.41	4.44089e-12
48	41032	25.51	4.44089e-12
48	41182	25.61	4.44089e-12
48	41333	25.71	4.44089e-12
48	41483	25.81	4.44089e-12
48	41633	25.91	4.44089e-12
48	41787	26.01	4.44089e-12
48	41937	26.11	4.44089e-12
48	42087	26.21	4.44089e-12
48	42237	26.31	4.44089e-12
48	42387	26.41	4.44089e-12
48	42537	26.51	4.44089e-12
48	42687	26.61	4.44089e-12
48	42837	26.71	4.44089e-12
48	42987	26.81	4.44089e-12
48	43137	26.91	4.44089e-12
48	43291	27.01	4.44089e-12
48	43441	27.11	4.44089e-12
48	43591	27.21	4.44089e-12
48	43741	27.31	4.44089e-12
48	43891	27.41	4.44089e-12
48	44041	27.51	4.44089e-12
48	44191	27.61	4.44089e-12
48	44341	27.71	4.44089e-12
48	44491	27.81	4.44089e-12
48	44641	27.91	4.44089e-12
48	44795	28.01	4.44089e-12
48	44945	28.11	4.44089e-12
48	45095	28.21	4.44089e-12
48	45245	28.31	4.44089e-12
48	45395	28.41	4.44089e-12
48	45545	28.51	4.44089e-12
48	45695	28.61	4.44089e-12
48	45845	28.71	4.44089e-12
48	45995	28.81	4.44089e-12
48	46145	28.91	4.44089e-12
48	46299	29.01	4.44089e-12
48	46449	29.11	4.44089e-12
48	46599	29.21	4.44089e-12
48	46749	29.31	4.44089e-12
48	46899	29.41	4.44089e-12
48	47049	29.51	4.44089e-12
48	47199	29.61	4.44089e-12
48	47349	29.71	4.44089e-12
48	47499	29.81	4.44089e-12
48	47649	29.91	4.44089e-12
48	47803	30.01	4.44089e-12
48	47953	30.11	4.44089e-12
48	48103	30.21	4.44089e-12
48	48253	30.31	4.44089e-12
48	48403	30.41	4.44089e-12
48	48553	30.51	4.44089e-12
48	48703	30.61	4.44089e-12
48	48853	30.71	4.44089e-12
48	49003	30.81	4.44089e-12
48	49153	30.91	4.44089e-12
48	49307	31.01	4.44089e-12
48	49457	31.11	4.44089e-12
48	49607	31.21	4.44089e-12
48	49757	31.31	4.44089e-12
48	49907	31.41	4.44089e-12
48	50057	31.51	4.44089e-12
48	50207	31.61	4.44089e-12
48	50357	31.71	4.44089e-12
48	50507	31.81	4.44089e-12
48	50657	31.91	4.44089e-12
48	50811	32.01	4.44089e-12
48	50961	32.11	4.44089e-12
48	51111	32.21	4.44089e-12
48	51261	32.31	4.44089e-12
48	51411	32.41	4.44089e-12
48	51561	32.51	4.44089e-12
47	26	0.21	-0.000358191
47	176	0.31	-0.000681704
47	326	0.41	-0.00093487
47	476	0.51	-0.00112579
47	626	0.61	-0.00126221
47	776	0.71	-0.00135149
47	926	0.81	-0.00140049
47	1076	0.91	-0.00141557
47	1230	1.01	-0.00140255
47	1381	1.11	-0.00136671
47	1532	1.21	-0.0013128
47	1683	1.31	-0.00124502
47	2046	1.41	-0.0011671
47	2196	1.51	-0.00108223
47	2346	1.61	-0.000993208
47	2496	1.71	-0.000902362
47	2646	1.81	-0.000811651
47	2796	1.91	-0.000722679
47	2950	2.01	-0.000636729
47	3100	2.11	-0.0005548
47	3250	2.21	-0.000477639
47	3400	2.31	-0.000405773
47	3763	2.41	-0.00033954
47	3914	2.51	-0.000279116
47	4064	2.61	-0.000224541
47	4214	2.71	-0.000175743
47	4364	2.81	-0.00013256
47	4514	2.91	-9.47571e-05
47	4668	3.01	-6.2046e-05
47	4818	3.11	-3.40986e-05
47	4968	3.21	-1.05605e-05
47	5118	3.31	8.93844e-06
47	5269	3.41	2.4774e-05
47	5676	3.51	3.73203e-05
47	5826	3.61	4.69433e-05
47	5976	3.71	5.39956e-05
47	6126	3.81	5.88124e-05
47	6276	3.91	6.1709e-05
47	6430	4.01	6.29785e-05
47	6580	4.11	6.28903e-05
47	6730	4.21	6.169e-05
47	6880	4.31	5.95988e-05
47	7030	4.41	5.68144e-05
47	7393	4.51	5.35112e-05
47	7544	4.61	4.98416e-05
47	7694	4.71	4.59373e-05
47	7844	4.81	4.19105e-05
47	7994	4.91	3.78555e-05
47	8148	5.01	3.38499e-05
47	8298	5.11	2.99569e-05
47	8448	5.21	2.62259e-05
47	8598	5.31	2.26948e-05
47	8748	5.41	1.93911e-05
47	8899	5.51	1.6333e-05
47	9262	5.61	1.35314e-05
47	9412	5.71	1.09904e-05
47	9562	5.81	8.70882e-06
47	9712	5.91	6.6809e-06
47	9866	6.01	4.89747e-06
47	10016	6.11	3.3466e-06
47	10166	6.21	2.01432e-06
47	10316	6.31	8.85256e-07
47	10466	6.41	-5.68454e-08
47	10616	6.51	-8.28678e-07
47	11023	6.61	-1.44699e-06
47	11174	6.71	-1.92826e-06
47	11324	6.81	-2.28849e-06
47	11474	6.91	-2.54296e-06
47	11628	7.01	-2.7061e-06
47	11778	7.11	-2.79139e-06
47	11928	7.21	-2.8113e-06
47	12078	7.31	-2.77721e-06
47	12228	7.41	-2.69943e-06
47	12378	7.51	-2.58721e-06
47	12529	7.61	-2.44874e-06
47	12892	7.71	-2.29123e-06
47	13042	7.81	-2.12092e-06
47	13192	7.91	-1.94317e-06
47	13346	8.01	-1.7625e-06
47	13496	8.11	-1.58267e-06
47	13646	8.21	-1.40677e-06
47	13796	8.31	-1.23723e-06
47	13946	8.41	-1.07596e-06
47	14096	8.51	-9.24365e-07
47	14246	8.61	-7.83425e-07
47	14609	8.71	-6.53753e-07
47	14760	8.81	-5.35652e-07
47	14910	8.91	-4.29161e-07
47	15064	9.01	-3.34103e-07
47	15214	9.11	-2.5013e-07
47	15364	9.21	-1.76757e-07
47	15514	9.31	-1.13395e-07
47	15664	9.41	-5.93825e-08
47	15814	9.51	-1.40082e-08
47	15964	9.61	2.34655e-08
47	16115	9.71	5.37865e-08
47	16522	9.81	7.76954e-08
47	16672	9.91	9.59155e-08
47	16826	10.01	1.09142e-07
47	16976	10.11	1.18035e-07
47	17126	10.21	1.23213e-07
47	17276	10.31	1.25251e-07
47	17426	10.41	1.24676e-07
47	17576	10.51	1.21969e-07
47	17726	10.61	1.1756e-07
47	17876	10.71	1.11835e-07
47	18239	10.81	1.05132e-07
47	18390	10.91	9.77479e-08
47	18544	11.01	8.99371e-08
47	18694	11.11	8.19167e-08
47	18844	11.21	7.38678e-08
47	18994	11.31	6.59401e-08
47	19144	11.41	5.82538e-08
47	19294	11.51	5.09036e-08
47	19444	11.61	4.39611e-08
47	19594	11.71	3.7477e-08
47	19745	11.81	3.14856e-08
47	20108	11.91	2.60057e-08
47	20262	12.01	2.10441e-08
47	20412	12.11	1.65965e-08
47	20562	12.21	1.26501e-08
47	20712	12.31	9.1859e-09
47	20862	12.41	6.17906e-09
47	21012	12.51	3.60174e-09
47	21162	12.61	1.42268e-09
47	21312	12.71	-3.90443e-10
47	21462	12.81	-1.87068e-09
47	21845	12.91	-3.05143e-09
47	22000	13.01	-3.96536e-09
47	22150	13.11	-4.64411e-09
47	22300	13.21	-5.11751e-09
47	22450	13.31	-5.41416e-09
47	22600	13.41	-5.56053e-09
47	22750	13.51	-5.5806e-09
47	22900	13.61	-5.49729e-09
47	23050	13.71	-5.32996e-09
47	23200	13.81	-5.09726e-09
47	23351	13.91	-4.81499e-09
47	23738	14.01	-4.49702e-09
47	23888	14.11	-4.15543e-09
47	24038	14.21	-3.80052e-09
47	24188	14.31	-3.44169e-09
47	24338	14.41	-3.08535e-09
47	24488	14.51	-2.73772e-09
47	24638	14.61	-2.40341e-09
47	24788	14.71	-2.08633e-09
47	24938	14.81	-1.78844e-09
47	25088	14.91	-1.51221e-09
47	25242	15.01	-1.25837e-09
47	25392	15.11	-1.02744e-09
47	25542	15.21	-8.19789e-10
47	25692	15.31	-6.34515e-10
47	25842	15.41	-4.71267e-10
47	25992	15.51	-3.28981e-10
47	26142	15.61	-2.06235e-10
47	26292	15.71	-1.02318e-10
47	26442	15.81	-1.45661e-11
47	26592	15.91	5.73763e-11
47	26746	16.01	1.15463e-10
47	26896	16.11	1.61116e-10
47	27046	16.21	1.95577e-10
47	27196	16.31	2.20446e-10
47	27346	16.41	2.36788e-10
47	27496	16.51	2.46025e-10
47	27646	16.61	2.49223e-10
47	27796	16.71	2.47447e-10
47	27946	16.81	2.41407e-10
47	28096	16.91	2.3217e-10
47	28250	17.01	2.20446e-10
47	28400	17.11	2.06768e-10
47	28550	17.21	1.91847e-10
47	28700	17.31	1.75859e-10
47	28850	17.41	1.59872e-10
47	29000	17.51	1.43885e-10
47	29150	17.61	1.27898e-10
47	29300	17.71	1.12976e-10
47	29450	17.81	9.87654e-11
47	29600	17.91	8.49099e-11
47	29754	18.01	7.24754e-11
47	29904	18.11	6.07514e-11
47	30054	18.21	5.00933e-11
47	30204	18.31	4.05009e-11
47	30354	18.41	3.16192e-11
47	30504	18.51	2.43361e-11
47	30654	18.61	1.72307e-11
47	30804	18.71	1.1724e-11
47	30954	18.81	6.39488e-12
47	31104	18.91	2.4869e-12
47	31258	19.01	-1.06581e-12
47	31408	19.11	-4.08562e-12
47	31558	19.21	-5.86198e-12
47	31708	19.31	-7.63833e-12
47	31858	19.41	-9.41469e-12
47	32008	19.51	-1.01252e-11
47	32158	19.61	-1.01252e-11
47	32308	19.71	-1.01252e-11
47	32458	19.81	-1.01252e-11
47	32608	19.91	-1.01252e-11
47	32762	20.01	-1.01252e-11
47	32912	20.11	-1.01252e-11
47	33062	20.21	-1.01252e-11
47	33212	20.31	-1.01252e-11
47	33362	20.41	-9.41469e-12
47	33512	20.51	-8.52651e-12
47	33662	20.61	-7.63833e-12
47	33812	20.71	-6.92779e-12
47	33962	20.81	-6.21725e-12
47	34112	20.91	-5.68434e-12
47	34266	21.01	-5.15143e-12
47	34416	21.11	-4.61853e-12
47	34566	21.21	-4.26326e-12
47	34716	21.31	-3.73035e-12
47	34866	21.41	-3.37508e-12
47	35016	21.51	-3.01981e-12
47	35166	21.61	-2.84217e-12
47	35316	21.71	-2.4869e-12
47	35466	21.81	-2.30926e-12
47	35616	21.91	-2.13163e-12
47	35770	22.01	-1.95399e-12
47	35920	22.11	-1.77636e-12
47	36070	22.21	-1.59872e-12
47	36220	22.31	-1.42109e-12
47	36370	22.41	-1.24345e-12
47	36520	22.51	-1.06581e-12
47	36670	22.61	-1.06581e-12
47	36820	22.71	-8.88178e-13
47	36970	22.81	-8.88178e-13
47	37120	22.91	-7.10543e-13
47	37274	23.01	-7.10543e-13
47	37424	23.11	-5.32907e-13
47	37574	23.21	-5.32907e-13
47	37724	23.31	-5.32907e-13
47	37874	23.41	-5.32907e-13
47	38024	23.51	-3.55271e-13
47	38174	23.61	-3.55271e-13
47	38324	23.71	-3.55271e-13
47	38474	23.81	-3.55271e-13
47	38624	23.91	-3.55271e-13
47	38778	24.01	-1.77636e-13
47	38928	24.11	-1.77636e-13
47	39078	24.21	-1.77636e-13
47	39228	24.31	-1.77636e-13
47	39378	24.41	-1.77636e-13
47	39528	24.51	-1.77636e-13
47	39678	24.61	-1.77636e-13
47	39828	24.71	-1.77636e-13
47	39978	24.81	-1.77636e-13
47	40128	24.91	-1.77636e-13
47	40282	25.01	0
47	40432	25.11	0
47	40582	25.21	0
47	40732	25.31	0
47	40882	25.41	0
47	41032	25.51	0
47	41182	25.61	0
47	41333	25.71	0
47	41483	25.81	0
47	41633	25.91	0
47	41787	26.01	0
47	41937	26.11	0
47	42087	26.21	0
47	42237	26.31	0
47	42387	26.41	0
47	42537	26.51	0
47	42687	26.61	0
47	42837	26.71	0
47	42987	26.81	0
47	43137	26.91	0
47	43291	27.01	0
47	43441	27.11	0
47	43591	27.21	0
47	43741	27.31	0
47	43891	27.41	0
47	44041	27.51	0
47	44191	27.61	0
47	44341	27.71	0
47	44491	27.81	0
47	44641	27.91	0
47	44795	28.01	0
47	44945	28.11	0
47	45095	28.21	0
47	45245	28.31	0
47	45395	28.41	0
47	45545	28.51	0
47	45695	28.61	0
47	45845	28.71	0
47	45995	28.81	0
47	46145	28.91	0
47	46299	29.01	0
47	46449	29.11	0
47	46599	29.21	0
47	46749	29.31	0
47	46899	29.41	0
47	47049	29.51	0
47	47199	29.61	0
47	47349	29.71	0
47	47499	29.81	0
47	47649	29.91	0
47	47803	30.01	0
47	47953	30.11	0
47	48103	30.21	0
47	48253	30.31	0
47	48403	30.41	0
47	48553	30.51	0
47	48703	30.61	0
47	48853	30.71	0
47	49003	30.81	0
47	49153	30.91	0
47	49307	31.01	0
47	49457	31.11	0
47	49607	31.21	0
47	49757	31.31	0
47	49907	31.41	0
47	50057	31.51	0
47	50207	31.61	0
47	50357	31.71	0
47	50507	31.81	0
47	50657	31.91	0
47	50811	32.01	0
47	50961	32.11	0
47	51111	32.21	0
47	51261	32.31	0
47	51411	32.41	0
47	51561	32.51	0
51	26	0.21	1.6
51	176	0.31	1.6
51	326	0.41	1.6
51	476	0.51	1.6
51	626	0.61	1.6
51	776	0.71	1.6
51	926	0.81	1.6
51	1076	0.91	1.6
51	1230	1.01	1.6
51	1381	1.11	1.6
51	1532	1.21	1.6
51	1683	1.31	1.6
51	2046	1.41	1.6
51	2196	1.51	1.6
51	2346	1.61	1.6
51	2496	1.71	1.6
51	2646	1.81	1.6
51	2796	1.91	1.6
51	2950	2.01	1.6
51	3100	2.11	1.6
51	3250	2.21	1.6
51	3400	2.31	1.6
51	3763	2.41	1.6
51	3914	2.51	1.6
51	4064	2.61	1.6
51	4214	2.71	1.6
51	4364	2.81	1.6
51	4514	2.91	1.6
51	4668	3.01	1.6
51	4818	3.11	1.6
51	4968	3.21	1.6
51	5118	3.31	1.6
51	5269	3.41	1.6
51	5676	3.51	1.6
51	5826	3.61	1.6
51	5976	3.71	1.6
51	6126	3.81	1.6
51	6276	3.91	1.6
51	6430	4.01	1.6
51	6580	4.11	1.6
51	6730	4.21	1.6
51	6880	4.31	1.6
51	7030	4.41	1.6
51	7393	4.51	1.6
51	7544	4.61	1.6
51	7694	4.71	1.6
51	7844	4.81	1.6
51	7994	4.91	1.6
51	8148	5.01	1.6
51	8298	5.11	1.6
51	8448	5.21	1.6
51	8598	5.31	1.6
51	8748	5.41	1.6
51	8899	5.51	1.6
51	9262	5.61	1.6
51	9412	5.71	1.6
51	9562	5.81	1.6
51	9712	5.91	1.6
51	9866	6.01	1.6
51	10016	6.11	1.6
51	10166	6.21	1.6
51	10316	6.31	1.6
51	10466	6.41	1.6
51	10616	6.51	1.6
51	11023	6.61	1.6
51	11174	6.71	1.6
51	11324	6.81	1.6
51	11474	6.91	1.6
51	11628	7.01	1.6
51	11778	7.11	1.6
51	11928	7.21	1.6
51	12078	7.31	1.6
51	12228	7.41	1.6
51	12378	7.51	1.6
51	12529	7.61	1.6
51	12892	7.71	1.6
51	13042	7.81	1.6
51	13192	7.91	1.6
51	13346	8.01	1.6
51	13496	8.11	1.6
51	13646	8.21	1.6
51	13796	8.31	1.6
51	13946	8.41	1.6
51	14096	8.51	1.6
51	14246	8.61	1.6
51	14609	8.71	1.6
51	14760	8.81	1.6
51	14910	8.91	1.6
51	15064	9.01	1.6
51	15214	9.11	1.6
51	15364	9.21	1.6
51	15514	9.31	1.6
51	15664	9.41	1.6
51	15814	9.51	1.6
51	15964	9.61	1.6
51	16115	9.71	1.6
51	16522	9.81	1.6
51	16672	9.91	1.6
51	16826	10.01	1.6
51	16976	10.11	1.6
51	17126	10.21	1.6
51	17276	10.31	1.6
51	17426	10.41	1.6
51	17576	10.51	1.6
51	17726	10.61	1.6
51	17876	10.71	1.6
51	18239	10.81	1.6
51	18390	10.91	1.6
51	18544	11.01	1.6
51	18694	11.11	1.6
51	18844	11.21	1.6
51	18994	11.31	1.6
51	19144	11.41	1.6
51	19294	11.51	1.6
51	19444	11.61	1.6
51	19594	11.71	1.6
51	19745	11.81	1.6
51	20108	11.91	1.6
51	20262	12.01	1.6
51	20412	12.11	1.6
51	20562	12.21	1.6
51	20712	12.31	1.6
51	20862	12.41	1.6
51	21012	12.51	1.6
51	21162	12.61	1.6
51	21312	12.71	1.6
51	21462	12.81	1.6
51	21845	12.91	1.6
51	22000	13.01	1.6
51	22150	13.11	1.6
51	22300	13.21	1.6
51	22450	13.31	1.6
51	22600	13.41	1.6
51	22750	13.51	1.6
51	22900	13.61	1.6
51	23050	13.71	1.6
51	23200	13.81	1.6
51	23351	13.91	1.6
51	23738	14.01	1.6
51	23888	14.11	1.6
51	24038	14.21	1.6
51	24188	14.31	1.6
51	24338	14.41	1.6
51	24488	14.51	1.6
51	24638	14.61	1.6
51	24788	14.71	1.6
51	24938	14.81	1.6
51	25088	14.91	1.6
51	25242	15.01	1.6
51	25392	15.11	1.6
51	25542	15.21	1.6
51	25692	15.31	1.6
51	25842	15.41	1.6
51	25992	15.51	1.6
51	26142	15.61	1.6
51	26292	15.71	1.6
51	26442	15.81	1.6
51	26592	15.91	1.6
51	26746	16.01	1.6
51	26896	16.11	1.6
51	27046	16.21	1.6
51	27196	16.31	1.6
51	27346	16.41	1.6
51	27496	16.51	1.6
51	27646	16.61	1.6
51	27796	16.71	1.6
51	27946	16.81	1.6
51	28096	16.91	1.6
51	28250	17.01	1.6
51	28400	17.11	1.6
51	28550	17.21	1.6
51	28700	17.31	1.6
51	28850	17.41	1.6
51	29000	17.51	1.6
51	29150	17.61	1.6
51	29300	17.71	1.6
51	29450	17.81	1.6
51	29600	17.91	1.6
51	29754	18.01	1.6
51	29904	18.11	1.6
51	30054	18.21	1.6
51	30204	18.31	1.6
51	30354	18.41	1.6
51	30504	18.51	1.6
51	30654	18.61	1.6
51	30804	18.71	1.6
51	30954	18.81	1.6
51	31104	18.91	1.6
51	31258	19.01	1.6
51	31408	19.11	1.6
51	31558	19.21	1.6
51	31708	19.31	1.6
51	31858	19.41	1.6
51	32008	19.51	1.6
51	32158	19.61	1.6
51	32308	19.71	1.6
51	32458	19.81	1.6
51	32608	19.91	1.6
51	32762	20.01	1.6
51	32912	20.11	1.6
51	33062	20.21	1.6
51	33212	20.31	1.6
51	33362	20.41	1.6
51	33512	20.51	1.6
51	33662	20.61	1.6
51	33812	20.71	1.6
51	33962	20.81	1.6
51	34112	20.91	1.6
51	34266	21.01	1.6
51	34416	21.11	1.6
51	34566	21.21	1.6
51	34716	21.31	1.6
51	34866	21.41	1.6
51	35016	21.51	1.6
51	35166	21.61	1.6
51	35316	21.71	1.6
51	35466	21.81	1.6
51	35616	21.91	1.6
51	35770	22.01	1.6
51	35920	22.11	1.6
51	36070	22.21	1.6
51	36220	22.31	1.6
51	36370	22.41	1.6
51	36520	22.51	1.6
51	36670	22.61	1.6
51	36820	22.71	1.6
51	36970	22.81	1.6
51	37120	22.91	1.6
51	37274	23.01	1.6
51	37424	23.11	1.6
51	37574	23.21	1.6
51	37724	23.31	1.6
51	37874	23.41	1.6
51	38024	23.51	1.6
51	38174	23.61	1.6
51	38324	23.71	1.6
51	38474	23.81	1.6
51	38624	23.91	1.6
51	38778	24.01	1.6
51	38928	24.11	1.6
51	39078	24.21	1.6
51	39228	24.31	1.6
51	39378	24.41	1.6
51	39528	24.51	1.6
51	39678	24.61	1.6
51	39828	24.71	1.6
51	39978	24.81	1.6
51	40128	24.91	1.6
51	40282	25.01	1.6
51	40432	25.11	1.6
51	40582	25.21	1.6
51	40732	25.31	1.6
51	40882	25.41	1.6
51	41032	25.51	1.6
51	41182	25.61	1.6
51	41333	25.71	1.6
51	41483	25.81	1.6
51	41633	25.91	1.6
51	41787	26.01	1.6
51	41937	26.11	1.6
51	42087	26.21	1.6
51	42237	26.31	1.6
51	42387	26.41	1.6
51	42537	26.51	1.6
51	42687	26.61	1.6
51	42837	26.71	1.6
51	42987	26.81	1.6
51	43137	26.91	1.6
51	43291	27.01	1.6
51	43441	27.11	1.6
51	43591	27.21	1.6
51	43741	27.31	1.6
51	43891	27.41	1.6
51	44041	27.51	1.6
51	44191	27.61	1.6
51	44341	27.71	1.6
51	44491	27.81	1.6
51	44641	27.91	1.6
51	44795	28.01	1.6
51	44945	28.11	1.6
51	45095	28.21	1.6
51	45245	28.31	1.6
51	45395	28.41	1.6
51	45545	28.51	1.6
51	45695	28.61	1.6
51	45845	28.71	1.6
51	45995	28.81	1.6
51	46145	28.91	1.6
51	46299	29.01	1.6
51	46449	29.11	1.6
51	46599	29.21	1.6
51	46749	29.31	1.6
51	46899	29.41	1.6
51	47049	29.51	1.6
51	47199	29.61	1.6
51	47349	29.71	1.6
51	47499	29.81	1.6
51	47649	29.91	1.6
51	47803	30.01	1.6
51	47953	30.11	1.6
51	48103	30.21	1.6
51	48253	30.31	1.6
51	48403	30.41	1.6
51	48553	30.51	1.6
51	48703	30.61	1.6
51	48853	30.71	1.6
51	49003	30.81	1.6
51	49153	30.91	1.6
51	49307	31.01	1.6
51	49457	31.11	1.6
51	49607	31.21	1.6
51	49757	31.31	1.6
51	49907	31.41	1.6
51	50057	31.51	1.6
51	50207	31.61	1.6
51	50357	31.71	1.6
51	50507	31.81	1.6
51	50657	31.91	1.6
51	50811	32.01	1.6
51	50961	32.11	1.6
51	51111	32.21	1.6
51	51261	32.31	1.6
51	51411	32.41	1.6
51	51561	32.51	1.6
50	26	0.21	494.625
50	176	0.31	493.097
50	326	0.41	491.569
50	476	0.51	490.041
50	626	0.61	488.513
50	776	0.71	486.985
50	926	0.81	485.457
50	1076	0.91	483.929
50	1230	1.01	482.401
50	1381	1.11	480.873
50	1532	1.21	479.345
50	1683	1.31	477.817
50	2046	1.41	476.29
50	2196	1.51	474.762
50	2346	1.61	473.234
50	2496	1.71	471.706
50	2646	1.81	470.178
50	2796	1.91	468.65
50	2950	2.01	467.123
50	3100	2.11	465.595
50	3250	2.21	464.067
50	3400	2.31	462.539
50	3763	2.41	461.011
50	3914	2.51	459.484
50	4064	2.61	457.956
50	4214	2.71	456.428
50	4364	2.81	454.9
50	4514	2.91	453.373
50	4668	3.01	451.845
50	4818	3.11	450.317
50	4968	3.21	448.789
50	5118	3.31	447.262
50	5269	3.41	445.734
50	5676	3.51	444.206
50	5826	3.61	442.678
50	5976	3.71	441.15
50	6126	3.81	439.623
50	6276	3.91	438.095
50	6430	4.01	436.567
50	6580	4.11	435.039
50	6730	4.21	433.512
50	6880	4.31	431.984
50	7030	4.41	430.456
50	7393	4.51	428.928
50	7544	4.61	427.4
50	7694	4.71	425.873
50	7844	4.81	424.345
50	7994	4.91	422.817
50	8148	5.01	421.289
50	8298	5.11	419.762
50	8448	5.21	418.234
50	8598	5.31	416.706
50	8748	5.41	415.178
50	8899	5.51	413.65
50	9262	5.61	412.123
50	9412	5.71	410.595
50	9562	5.81	409.067
50	9712	5.91	407.539
50	9866	6.01	406.012
50	10016	6.11	404.484
50	10166	6.21	402.956
50	10316	6.31	401.428
50	10466	6.41	399.9
50	10616	6.51	398.373
50	11023	6.61	396.845
50	11174	6.71	395.317
50	11324	6.81	393.789
50	11474	6.91	392.262
50	11628	7.01	390.734
50	11778	7.11	389.206
50	11928	7.21	387.678
50	12078	7.31	386.15
50	12228	7.41	384.623
50	12378	7.51	383.095
50	12529	7.61	381.567
50	12892	7.71	380.039
50	13042	7.81	378.512
50	13192	7.91	376.984
50	13346	8.01	375.456
50	13496	8.11	373.928
50	13646	8.21	372.4
50	13796	8.31	370.873
50	13946	8.41	369.345
50	14096	8.51	367.817
50	14246	8.61	366.289
50	14609	8.71	364.762
50	14760	8.81	363.234
50	14910	8.91	361.706
50	15064	9.01	360.178
50	15214	9.11	358.65
50	15364	9.21	357.123
50	15514	9.31	355.595
50	15664	9.41	354.067
50	15814	9.51	352.539
50	15964	9.61	351.011
50	16115	9.71	349.484
50	16522	9.81	347.956
50	16672	9.91	346.428
50	16826	10.01	344.9
50	16976	10.11	343.373
50	17126	10.21	341.845
50	17276	10.31	340.317
50	17426	10.41	338.789
50	17576	10.51	337.261
50	17726	10.61	335.734
50	17876	10.71	334.206
50	18239	10.81	332.678
50	18390	10.91	331.15
50	18544	11.01	329.623
50	18694	11.11	328.095
50	18844	11.21	326.567
50	18994	11.31	325.039
50	19144	11.41	323.511
50	19294	11.51	321.984
50	19444	11.61	320.456
50	19594	11.71	318.928
50	19745	11.81	317.4
50	20108	11.91	315.873
50	20262	12.01	314.345
50	20412	12.11	312.817
50	20562	12.21	311.289
50	20712	12.31	309.761
50	20862	12.41	308.234
50	21012	12.51	306.706
50	21162	12.61	305.178
50	21312	12.71	303.65
50	21462	12.81	302.123
50	21845	12.91	300.595
50	22000	13.01	299.067
50	22150	13.11	297.539
50	22300	13.21	296.011
50	22450	13.31	294.484
50	22600	13.41	292.956
50	22750	13.51	291.428
50	22900	13.61	289.9
50	23050	13.71	288.373
50	23200	13.81	286.845
50	23351	13.91	285.317
50	23738	14.01	283.789
50	23888	14.11	282.261
50	24038	14.21	280.734
50	24188	14.31	279.206
50	24338	14.41	277.678
50	24488	14.51	276.15
50	24638	14.61	274.622
50	24788	14.71	273.095
50	24938	14.81	271.567
50	25088	14.91	270.039
50	25242	15.01	268.511
50	25392	15.11	266.984
50	25542	15.21	265.456
50	25692	15.31	263.928
50	25842	15.41	262.4
50	25992	15.51	260.872
50	26142	15.61	259.345
50	26292	15.71	257.817
50	26442	15.81	256.289
50	26592	15.91	254.761
50	26746	16.01	253.234
50	26896	16.11	251.706
50	27046	16.21	250.178
50	27196	16.31	248.65
50	27346	16.41	247.122
50	27496	16.51	245.595
50	27646	16.61	244.067
50	27796	16.71	242.539
50	27946	16.81	241.011
50	28096	16.91	239.484
50	28250	17.01	237.956
50	28400	17.11	236.428
50	28550	17.21	234.9
50	28700	17.31	233.372
50	28850	17.41	231.845
50	29000	17.51	230.317
50	29150	17.61	228.789
50	29300	17.71	227.261
50	29450	17.81	225.734
50	29600	17.91	224.206
50	29754	18.01	222.678
50	29904	18.11	221.15
50	30054	18.21	219.622
50	30204	18.31	218.095
50	30354	18.41	216.567
50	30504	18.51	215.039
50	30654	18.61	213.511
50	30804	18.71	211.984
50	30954	18.81	210.456
50	31104	18.91	208.928
50	31258	19.01	207.4
50	31408	19.11	205.872
50	31558	19.21	204.345
50	31708	19.31	202.817
50	31858	19.41	201.289
50	32008	19.51	199.761
50	32158	19.61	198.233
50	32308	19.71	196.706
50	32458	19.81	195.178
50	32608	19.91	193.65
50	32762	20.01	192.122
50	32912	20.11	190.595
50	33062	20.21	189.067
50	33212	20.31	187.539
50	33362	20.41	186.011
50	33512	20.51	184.483
50	33662	20.61	182.956
50	33812	20.71	181.428
50	33962	20.81	179.9
50	34112	20.91	178.372
50	34266	21.01	176.845
50	34416	21.11	175.317
50	34566	21.21	173.789
50	34716	21.31	172.261
50	34866	21.41	170.733
50	35016	21.51	169.206
50	35166	21.61	167.678
50	35316	21.71	166.15
50	35466	21.81	164.622
50	35616	21.91	163.095
50	35770	22.01	161.567
50	35920	22.11	160.039
50	36070	22.21	158.511
50	36220	22.31	156.983
50	36370	22.41	155.456
50	36520	22.51	153.928
50	36670	22.61	152.4
50	36820	22.71	150.872
50	36970	22.81	149.345
50	37120	22.91	147.817
50	37274	23.01	146.289
50	37424	23.11	144.761
50	37574	23.21	143.233
50	37724	23.31	141.706
50	37874	23.41	140.178
50	38024	23.51	138.65
50	38174	23.61	137.122
50	38324	23.71	135.595
50	38474	23.81	134.067
50	38624	23.91	132.539
50	38778	24.01	131.011
50	38928	24.11	129.483
50	39078	24.21	127.956
50	39228	24.31	126.428
50	39378	24.41	124.9
50	39528	24.51	123.372
50	39678	24.61	121.844
50	39828	24.71	120.317
50	39978	24.81	118.789
50	40128	24.91	117.261
50	40282	25.01	115.733
50	40432	25.11	114.206
50	40582	25.21	112.678
50	40732	25.31	111.15
50	40882	25.41	109.622
50	41032	25.51	108.094
50	41182	25.61	106.567
50	41333	25.71	105.039
50	41483	25.81	103.511
50	41633	25.91	101.983
50	41787	26.01	100.456
50	41937	26.11	98.9278
50	42087	26.21	97.4
50	42237	26.31	95.8722
50	42387	26.41	94.3444
50	42537	26.51	92.8167
50	42687	26.61	91.2889
50	42837	26.71	89.7611
50	42987	26.81	88.2333
50	43137	26.91	86.7055
50	43291	27.01	85.1778
50	43441	27.11	83.65
50	43591	27.21	82.1222
50	43741	27.31	80.5944
50	43891	27.41	79.0666
50	44041	27.51	77.5389
50	44191	27.61	76.0111
50	44341	27.71	74.4833
50	44491	27.81	72.9555
50	44641	27.91	71.4277
50	44795	28.01	69.9
50	44945	28.11	68.3722
50	45095	28.21	66.8444
50	45245	28.31	65.3166
50	45395	28.41	63.7888
50	45545	28.51	62.2611
50	45695	28.61	60.7333
50	45845	28.71	59.2055
50	45995	28.81	57.6777
50	46145	28.91	56.1499
50	46299	29.01	54.6222
50	46449	29.11	53.0944
50	46599	29.21	51.5666
50	46749	29.31	50.0388
50	46899	29.41	48.511
50	47049	29.51	46.9833
50	47199	29.61	45.4555
50	47349	29.71	43.9277
50	47499	29.81	42.3999
50	47649	29.91	40.8721
50	47803	30.01	39.3444
50	47953	30.11	37.8166
50	48103	30.21	36.2888
50	48253	30.31	34.761
50	48403	30.41	33.2332
50	48553	30.51	31.7055
50	48703	30.61	30.1777
50	48853	30.71	28.6499
50	49003	30.81	27.1221
50	49153	30.91	25.5943
50	49307	31.01	24.0666
50	49457	31.11	22.5388
50	49607	31.21	21.011
50	49757	31.31	19.4832
50	49907	31.41	17.9554
50	50057	31.51	16.4277
50	50207	31.61	14.8999
50	50357	31.71	13.3721
50	50507	31.81	11.8443
50	50657	31.91	10.3165
50	50811	32.01	8.78877
50	50961	32.11	7.26099
50	51111	32.21	5.73321
50	51261	32.31	4.20543
50	51411	32.41	2.67765
50	51561	32.51	1.14987
49	26	0.21	15.28
49	176	0.31	15.2799
49	326	0.41	15.2798
49	476	0.51	15.2797
49	626	0.61	15.2796
49	776	0.71	15.2795
49	926	0.81	15.2794
49	1076	0.91	15.2792
49	1230	1.01	15.2791
49	1381	1.11	15.2789
49	1532	1.21	15.2788
49	1683	1.31	15.2787
49	2046	1.41	15.2785
49	2196	1.51	15.2784
49	2346	1.61	15.2783
49	2496	1.71	15.2782
49	2646	1.81	15.2782
49	2796	1.91	15.2781
49	2950	2.01	15.278
49	3100	2.11	15.2779
49	3250	2.21	15.2779
49	3400	2.31	15.2779
49	3763	2.41	15.2778
49	3914	2.51	15.2778
49	4064	2.61	15.2778
49	4214	2.71	15.2777
49	4364	2.81	15.2777
49	4514	2.91	15.2777
49	4668	3.01	15.2777
49	4818	3.11	15.2777
49	4968	3.21	15.2777
49	5118	3.31	15.2777
49	5269	3.41	15.2777
49	5676	3.51	15.2777
49	5826	3.61	15.2777
49	5976	3.71	15.2777
49	6126	3.81	15.2777
49	6276	3.91	15.2777
49	6430	4.01	15.2777
49	6580	4.11	15.2777
49	6730	4.21	15.2777
49	6880	4.31	15.2778
49	7030	4.41	15.2778
49	7393	4.51	15.2778
49	7544	4.61	15.2778
49	7694	4.71	15.2778
49	7844	4.81	15.2778
49	7994	4.91	15.2778
49	8148	5.01	15.2778
49	8298	5.11	15.2778
49	8448	5.21	15.2778
49	8598	5.31	15.2778
49	8748	5.41	15.2778
49	8899	5.51	15.2778
49	9262	5.61	15.2778
49	9412	5.71	15.2778
49	9562	5.81	15.2778
49	9712	5.91	15.2778
49	9866	6.01	15.2778
49	10016	6.11	15.2778
49	10166	6.21	15.2778
49	10316	6.31	15.2778
49	10466	6.41	15.2778
49	10616	6.51	15.2778
49	11023	6.61	15.2778
49	11174	6.71	15.2778
49	11324	6.81	15.2778
49	11474	6.91	15.2778
49	11628	7.01	15.2778
49	11778	7.11	15.2778
49	11928	7.21	15.2778
49	12078	7.31	15.2778
49	12228	7.41	15.2778
49	12378	7.51	15.2778
49	12529	7.61	15.2778
49	12892	7.71	15.2778
49	13042	7.81	15.2778
49	13192	7.91	15.2778
49	13346	8.01	15.2778
49	13496	8.11	15.2778
49	13646	8.21	15.2778
49	13796	8.31	15.2778
49	13946	8.41	15.2778
49	14096	8.51	15.2778
49	14246	8.61	15.2778
49	14609	8.71	15.2778
49	14760	8.81	15.2778
49	14910	8.91	15.2778
49	15064	9.01	15.2778
49	15214	9.11	15.2778
49	15364	9.21	15.2778
49	15514	9.31	15.2778
49	15664	9.41	15.2778
49	15814	9.51	15.2778
49	15964	9.61	15.2778
49	16115	9.71	15.2778
49	16522	9.81	15.2778
49	16672	9.91	15.2778
49	16826	10.01	15.2778
49	16976	10.11	15.2778
49	17126	10.21	15.2778
49	17276	10.31	15.2778
49	17426	10.41	15.2778
49	17576	10.51	15.2778
49	17726	10.61	15.2778
49	17876	10.71	15.2778
49	18239	10.81	15.2778
49	18390	10.91	15.2778
49	18544	11.01	15.2778
49	18694	11.11	15.2778
49	18844	11.21	15.2778
49	18994	11.31	15.2778
49	19144	11.41	15.2778
49	19294	11.51	15.2778
49	19444	11.61	15.2778
49	19594	11.71	15.2778
49	19745	11.81	15.2778
49	20108	11.91	15.2778
49	20262	12.01	15.2778
49	20412	12.11	15.2778
49	20562	12.21	15.2778
49	20712	12.31	15.2778
49	20862	12.41	15.2778
49	21012	12.51	15.2778
49	21162	12.61	15.2778
49	21312	12.71	15.2778
49	21462	12.81	15.2778
49	21845	12.91	15.2778
49	22000	13.01	15.2778
49	22150	13.11	15.2778
49	22300	13.21	15.2778
49	22450	13.31	15.2778
49	22600	13.41	15.2778
49	22750	13.51	15.2778
49	22900	13.61	15.2778
49	23050	13.71	15.2778
49	23200	13.81	15.2778
49	23351	13.91	15.2778
49	23738	14.01	15.2778
49	23888	14.11	15.2778
49	24038	14.21	15.2778
49	24188	14.31	15.2778
49	24338	14.41	15.2778
49	24488	14.51	15.2778
49	24638	14.61	15.2778
49	24788	14.71	15.2778
49	24938	14.81	15.2778
49	25088	14.91	15.2778
49	25242	15.01	15.2778
49	25392	15.11	15.2778
49	25542	15.21	15.2778
49	25692	15.31	15.2778
49	25842	15.41	15.2778
49	25992	15.51	15.2778
49	26142	15.61	15.2778
49	26292	15.71	15.2778
49	26442	15.81	15.2778
49	26592	15.91	15.2778
49	26746	16.01	15.2778
49	26896	16.11	15.2778
49	27046	16.21	15.2778
49	27196	16.31	15.2778
49	27346	16.41	15.2778
49	27496	16.51	15.2778
49	27646	16.61	15.2778
49	27796	16.71	15.2778
49	27946	16.81	15.2778
49	28096	16.91	15.2778
49	28250	17.01	15.2778
49	28400	17.11	15.2778
49	28550	17.21	15.2778
49	28700	17.31	15.2778
49	28850	17.41	15.2778
49	29000	17.51	15.2778
49	29150	17.61	15.2778
49	29300	17.71	15.2778
49	29450	17.81	15.2778
49	29600	17.91	15.2778
49	29754	18.01	15.2778
49	29904	18.11	15.2778
49	30054	18.21	15.2778
49	30204	18.31	15.2778
49	30354	18.41	15.2778
49	30504	18.51	15.2778
49	30654	18.61	15.2778
49	30804	18.71	15.2778
49	30954	18.81	15.2778
49	31104	18.91	15.2778
49	31258	19.01	15.2778
49	31408	19.11	15.2778
49	31558	19.21	15.2778
49	31708	19.31	15.2778
49	31858	19.41	15.2778
49	32008	19.51	15.2778
49	32158	19.61	15.2778
49	32308	19.71	15.2778
49	32458	19.81	15.2778
49	32608	19.91	15.2778
49	32762	20.01	15.2778
49	32912	20.11	15.2778
49	33062	20.21	15.2778
49	33212	20.31	15.2778
49	33362	20.41	15.2778
49	33512	20.51	15.2778
49	33662	20.61	15.2778
49	33812	20.71	15.2778
49	33962	20.81	15.2778
49	34112	20.91	15.2778
49	34266	21.01	15.2778
49	34416	21.11	15.2778
49	34566	21.21	15.2778
49	34716	21.31	15.2778
49	34866	21.41	15.2778
49	35016	21.51	15.2778
49	35166	21.61	15.2778
49	35316	21.71	15.2778
49	35466	21.81	15.2778
49	35616	21.91	15.2778
49	35770	22.01	15.2778
49	35920	22.11	15.2778
49	36070	22.21	15.2778
49	36220	22.31	15.2778
49	36370	22.41	15.2778
49	36520	22.51	15.2778
49	36670	22.61	15.2778
49	36820	22.71	15.2778
49	36970	22.81	15.2778
49	37120	22.91	15.2778
49	37274	23.01	15.2778
49	37424	23.11	15.2778
49	37574	23.21	15.2778
49	37724	23.31	15.2778
49	37874	23.41	15.2778
49	38024	23.51	15.2778
49	38174	23.61	15.2778
49	38324	23.71	15.2778
49	38474	23.81	15.2778
49	38624	23.91	15.2778
49	38778	24.01	15.2778
49	38928	24.11	15.2778
49	39078	24.21	15.2778
49	39228	24.31	15.2778
49	39378	24.41	15.2778
49	39528	24.51	15.2778
49	39678	24.61	15.2778
49	39828	24.71	15.2778
49	39978	24.81	15.2778
49	40128	24.91	15.2778
49	40282	25.01	15.2778
49	40432	25.11	15.2778
49	40582	25.21	15.2778
49	40732	25.31	15.2778
49	40882	25.41	15.2778
49	41032	25.51	15.2778
49	41182	25.61	15.2778
49	41333	25.71	15.2778
49	41483	25.81	15.2778
49	41633	25.91	15.2778
49	41787	26.01	15.2778
49	41937	26.11	15.2778
49	42087	26.21	15.2778
49	42237	26.31	15.2778
49	42387	26.41	15.2778
49	42537	26.51	15.2778
49	42687	26.61	15.2778
49	42837	26.71	15.2778
49	42987	26.81	15.2778
49	43137	26.91	15.2778
49	43291	27.01	15.2778
49	43441	27.11	15.2778
49	43591	27.21	15.2778
49	43741	27.31	15.2778
49	43891	27.41	15.2778
49	44041	27.51	15.2778
49	44191	27.61	15.2778
49	44341	27.71	15.2778
49	44491	27.81	15.2778
49	44641	27.91	15.2778
49	44795	28.01	15.2778
49	44945	28.11	15.2778
49	45095	28.21	15.2778
49	45245	28.31	15.2778
49	45395	28.41	15.2778
49	45545	28.51	15.2778
49	45695	28.61	15.2778
49	45845	28.71	15.2778
49	45995	28.81	15.2778
49	46145	28.91	15.2778
49	46299	29.01	15.2778
49	46449	29.11	15.2778
49	46599	29.21	15.2778
49	46749	29.31	15.2778
49	46899	29.41	15.2778
49	47049	29.51	15.2778
49	47199	29.61	15.2778
49	47349	29.71	15.2778
49	47499	29.81	15.2778
49	47649	29.91	15.2778
49	47803	30.01	15.2778
49	47953	30.11	15.2778
49	48103	30.21	15.2778
49	48253	30.31	15.2778
49	48403	30.41	15.2778
49	48553	30.51	15.2778
49	48703	30.61	15.2778
49	48853	30.71	15.2778
49	49003	30.81	15.2778
49	49153	30.91	15.2778
49	49307	31.01	15.2778
49	49457	31.11	15.2778
49	49607	31.21	15.2778
49	49757	31.31	15.2778
49	49907	31.41	15.2778
49	50057	31.51	15.2778
49	50207	31.61	15.2778
49	50357	31.71	15.2778
49	50507	31.81	15.2778
49	50657	31.91	15.2778
49	50811	32.01	15.2778
49	50961	32.11	15.2778
49	51111	32.21	15.2778
49	51261	32.31	15.2778
49	51411	32.41	15.2778
49	51561	32.51	15.2778
45	26	0.21	0
45	176	0.31	0
45	326	0.41	0
45	476	0.51	0
45	626	0.61	0
45	776	0.71	0
45	926	0.81	0
45	1076	0.91	0
45	1230	1.01	0
45	1381	1.11	0
45	1532	1.21	0
45	1683	1.31	0
45	2046	1.41	0
45	2196	1.51	0
45	2346	1.61	0
45	2496	1.71	0
45	2646	1.81	0
45	2796	1.91	0
45	2950	2.01	0
45	3100	2.11	0
45	3250	2.21	0
45	3400	2.31	0
45	3763	2.41	0
45	3914	2.51	0
45	4064	2.61	0
45	4214	2.71	0
45	4364	2.81	0
45	4514	2.91	0
45	4668	3.01	0
45	4818	3.11	0
45	4968	3.21	0
45	5118	3.31	0
45	5269	3.41	0
45	5676	3.51	0
45	5826	3.61	0
45	5976	3.71	0
45	6126	3.81	0
45	6276	3.91	0
45	6430	4.01	0
45	6580	4.11	0
45	6730	4.21	0
45	6880	4.31	0
45	7030	4.41	0
45	7393	4.51	0
45	7544	4.61	0
45	7694	4.71	0
45	7844	4.81	0
45	7994	4.91	0
45	8148	5.01	0
45	8298	5.11	0
45	8448	5.21	0
45	8598	5.31	0
45	8748	5.41	0
45	8899	5.51	0
45	9262	5.61	0
45	9412	5.71	0
45	9562	5.81	0
45	9712	5.91	0
45	9866	6.01	0
45	10016	6.11	0
45	10166	6.21	0
45	10316	6.31	0
45	10466	6.41	0
45	10616	6.51	0
45	11023	6.61	0
45	11174	6.71	0
45	11324	6.81	0
45	11474	6.91	0
45	11628	7.01	0
45	11778	7.11	0
45	11928	7.21	0
45	12078	7.31	0
45	12228	7.41	0
45	12378	7.51	0
45	12529	7.61	0
45	12892	7.71	0
45	13042	7.81	0
45	13192	7.91	0
45	13346	8.01	0
45	13496	8.11	0
45	13646	8.21	0
45	13796	8.31	0
45	13946	8.41	0
45	14096	8.51	0
45	14246	8.61	0
45	14609	8.71	0
45	14760	8.81	0
45	14910	8.91	0
45	15064	9.01	0
45	15214	9.11	0
45	15364	9.21	0
45	15514	9.31	0
45	15664	9.41	0
45	15814	9.51	0
45	15964	9.61	0
45	16115	9.71	0
45	16522	9.81	0
45	16672	9.91	0
45	16826	10.01	0
45	16976	10.11	0
45	17126	10.21	0
45	17276	10.31	0
45	17426	10.41	0
45	17576	10.51	0
45	17726	10.61	0
45	17876	10.71	0
45	18239	10.81	0
45	18390	10.91	0
45	18544	11.01	0
45	18694	11.11	0
45	18844	11.21	0
45	18994	11.31	0
45	19144	11.41	0
45	19294	11.51	0
45	19444	11.61	0
45	19594	11.71	0
45	19745	11.81	0
45	20108	11.91	0
45	20262	12.01	0
45	20412	12.11	0
45	20562	12.21	0
45	20712	12.31	0
45	20862	12.41	0
45	21012	12.51	0
45	21162	12.61	0
45	21312	12.71	0
45	21462	12.81	0
45	21845	12.91	0
45	22000	13.01	0
45	22150	13.11	0
45	22300	13.21	0
45	22450	13.31	0
45	22600	13.41	0
45	22750	13.51	0
45	22900	13.61	0
45	23050	13.71	0
45	23200	13.81	0
45	23351	13.91	0
45	23738	14.01	0
45	23888	14.11	0
45	24038	14.21	0
45	24188	14.31	0
45	24338	14.41	0
45	24488	14.51	0
45	24638	14.61	0
45	24788	14.71	0
45	24938	14.81	0
45	25088	14.91	0
45	25242	15.01	0
45	25392	15.11	0
45	25542	15.21	0
45	25692	15.31	0
45	25842	15.41	0
45	25992	15.51	0
45	26142	15.61	0
45	26292	15.71	0
45	26442	15.81	0
45	26592	15.91	0
45	26746	16.01	0
45	26896	16.11	0
45	27046	16.21	0
45	27196	16.31	0
45	27346	16.41	0
45	27496	16.51	0
45	27646	16.61	0
45	27796	16.71	0
45	27946	16.81	0
45	28096	16.91	0
45	28250	17.01	0
45	28400	17.11	0
45	28550	17.21	0
45	28700	17.31	0
45	28850	17.41	0
45	29000	17.51	0
45	29150	17.61	0
45	29300	17.71	0
45	29450	17.81	0
45	29600	17.91	0
45	29754	18.01	0
45	29904	18.11	0
45	30054	18.21	0
45	30204	18.31	0
45	30354	18.41	0
45	30504	18.51	0
45	30654	18.61	0
45	30804	18.71	0
45	30954	18.81	0
45	31104	18.91	0
45	31258	19.01	0
45	31408	19.11	0
45	31558	19.21	0
45	31708	19.31	0
45	31858	19.41	0
45	32008	19.51	0
45	32158	19.61	0
45	32308	19.71	0
45	32458	19.81	0
45	32608	19.91	0
45	32762	20.01	0
45	32912	20.11	0
45	33062	20.21	0
45	33212	20.31	0
45	33362	20.41	0
45	33512	20.51	0
45	33662	20.61	0
45	33812	20.71	0
45	33962	20.81	0
45	34112	20.91	0
45	34266	21.01	0
45	34416	21.11	0
45	34566	21.21	0
45	34716	21.31	0
45	34866	21.41	0
45	35016	21.51	0
45	35166	21.61	0
45	35316	21.71	0
45	35466	21.81	0
45	35616	21.91	0
45	35770	22.01	0
45	35920	22.11	0
45	36070	22.21	0
45	36220	22.31	0
45	36370	22.41	0
45	36520	22.51	0
45	36670	22.61	0
45	36820	22.71	0
45	36970	22.81	0
45	37120	22.91	0
45	37274	23.01	0
45	37424	23.11	0
45	37574	23.21	0
45	37724	23.31	0
45	37874	23.41	0
45	38024	23.51	0
45	38174	23.61	0
45	38324	23.71	0
45	38474	23.81	0
45	38624	23.91	0
45	38778	24.01	0
45	38928	24.11	0
45	39078	24.21	0
45	39228	24.31	0
45	39378	24.41	0
45	39528	24.51	0
45	39678	24.61	0
45	39828	24.71	0
45	39978	24.81	0
45	40128	24.91	0
45	40282	25.01	0
45	40432	25.11	0
45	40582	25.21	0
45	40732	25.31	0
45	40882	25.41	0
45	41032	25.51	0
45	41182	25.61	0
45	41333	25.71	0
45	41483	25.81	0
45	41633	25.91	0
45	41787	26.01	0
45	41937	26.11	0
45	42087	26.21	0
45	42237	26.31	0
45	42387	26.41	0
45	42537	26.51	0
45	42687	26.61	0
45	42837	26.71	0
45	42987	26.81	0
45	43137	26.91	0
45	43291	27.01	0
45	43441	27.11	0
45	43591	27.21	0
45	43741	27.31	0
45	43891	27.41	0
45	44041	27.51	0
45	44191	27.61	0
45	44341	27.71	0
45	44491	27.81	0
45	44641	27.91	0
45	44795	28.01	0
45	44945	28.11	0
45	45095	28.21	0
45	45245	28.31	0
45	45395	28.41	0
45	45545	28.51	0
45	45695	28.61	0
45	45845	28.71	0
45	45995	28.81	0
45	46145	28.91	0
45	46299	29.01	0
45	46449	29.11	0
45	46599	29.21	0
45	46749	29.31	0
45	46899	29.41	0
45	47049	29.51	0
45	47199	29.61	0
45	47349	29.71	0
45	47499	29.81	0
45	47649	29.91	0
45	47803	30.01	0
45	47953	30.11	0
45	48103	30.21	0
45	48253	30.31	0
45	48403	30.41	0
45	48553	30.51	0
45	48703	30.61	0
45	48853	30.71	0
45	49003	30.81	0
45	49153	30.91	0
45	49307	31.01	0
45	49457	31.11	0
45	49607	31.21	0
45	49757	31.31	0
45	49907	31.41	0
45	50057	31.51	0
45	50207	31.61	0
45	50357	31.71	0
45	50507	31.81	0
45	50657	31.91	0
45	50811	32.01	0
45	50961	32.11	0
45	51111	32.21	0
45	51261	32.31	0
45	51411	32.41	0
45	51561	32.51	0
44	26	0.21	-1
44	176	0.31	-1
44	326	0.41	-1
44	476	0.51	-1
44	626	0.61	-1
44	776	0.71	-1
44	926	0.81	-1
44	1076	0.91	-1
44	1230	1.01	-1
44	1381	1.11	-1
44	1532	1.21	-1
44	1683	1.31	-1
44	2046	1.41	-1
44	2196	1.51	-1
44	2346	1.61	-1
44	2496	1.71	-1
44	2646	1.81	-1
44	2796	1.91	-1
44	2950	2.01	-1
44	3100	2.11	-1
44	3250	2.21	-1
44	3400	2.31	-1
44	3763	2.41	-1
44	3914	2.51	-1
44	4064	2.61	-1
44	4214	2.71	-1
44	4364	2.81	-1
44	4514	2.91	-1
44	4668	3.01	-1
44	4818	3.11	-1
44	4968	3.21	-1
44	5118	3.31	-1
44	5269	3.41	-1
44	5676	3.51	-1
44	5826	3.61	-1
44	5976	3.71	-1
44	6126	3.81	-1
44	6276	3.91	-1
44	6430	4.01	-1
44	6580	4.11	-1
44	6730	4.21	-1
44	6880	4.31	-1
44	7030	4.41	-1
44	7393	4.51	-1
44	7544	4.61	-1
44	7694	4.71	-1
44	7844	4.81	-1
44	7994	4.91	-1
44	8148	5.01	-1
44	8298	5.11	-1
44	8448	5.21	-1
44	8598	5.31	-1
44	8748	5.41	-1
44	8899	5.51	-1
44	9262	5.61	-1
44	9412	5.71	-1
44	9562	5.81	-1
44	9712	5.91	-1
44	9866	6.01	-1
44	10016	6.11	-1
44	10166	6.21	-1
44	10316	6.31	-1
44	10466	6.41	-1
44	10616	6.51	-1
44	11023	6.61	-1
44	11174	6.71	-1
44	11324	6.81	-1
44	11474	6.91	-1
44	11628	7.01	-1
44	11778	7.11	-1
44	11928	7.21	-1
44	12078	7.31	-1
44	12228	7.41	-1
44	12378	7.51	-1
44	12529	7.61	-1
44	12892	7.71	-1
44	13042	7.81	-1
44	13192	7.91	-1
44	13346	8.01	-1
44	13496	8.11	-1
44	13646	8.21	-1
44	13796	8.31	-1
44	13946	8.41	-1
44	14096	8.51	-1
44	14246	8.61	-1
44	14609	8.71	-1
44	14760	8.81	-1
44	14910	8.91	-1
44	15064	9.01	-1
44	15214	9.11	-1
44	15364	9.21	-1
44	15514	9.31	-1
44	15664	9.41	-1
44	15814	9.51	-1
44	15964	9.61	-1
44	16115	9.71	-1
44	16522	9.81	-1
44	16672	9.91	-1
44	16826	10.01	-1
44	16976	10.11	-1
44	17126	10.21	-1
44	17276	10.31	-1
44	17426	10.41	-1
44	17576	10.51	-1
44	17726	10.61	-1
44	17876	10.71	-1
44	18239	10.81	-1
44	18390	10.91	-1
44	18544	11.01	-1
44	18694	11.11	-1
44	18844	11.21	-1
44	18994	11.31	-1
44	19144	11.41	-1
44	19294	11.51	-1
44	19444	11.61	-1
44	19594	11.71	-1
44	19745	11.81	-1
44	20108	11.91	-1
44	20262	12.01	-1
44	20412	12.11	-1
44	20562	12.21	-1
44	20712	12.31	-1
44	20862	12.41	-1
44	21012	12.51	-1
44	21162	12.61	-1
44	21312	12.71	-1
44	21462	12.81	-1
44	21845	12.91	-1
44	22000	13.01	-1
44	22150	13.11	-1
44	22300	13.21	-1
44	22450	13.31	-1
44	22600	13.41	-1
44	22750	13.51	-1
44	22900	13.61	-1
44	23050	13.71	-1
44	23200	13.81	-1
44	23351	13.91	-1
44	23738	14.01	-1
44	23888	14.11	-1
44	24038	14.21	-1
44	24188	14.31	-1
44	24338	14.41	-1
44	24488	14.51	-1
44	24638	14.61	-1
44	24788	14.71	-1
44	24938	14.81	-1
44	25088	14.91	-1
44	25242	15.01	-1
44	25392	15.11	-1
44	25542	15.21	-1
44	25692	15.31	-1
44	25842	15.41	-1
44	25992	15.51	-1
44	26142	15.61	-1
44	26292	15.71	-1
44	26442	15.81	-1
44	26592	15.91	-1
44	26746	16.01	-1
44	26896	16.11	-1
44	27046	16.21	-1
44	27196	16.31	-1
44	27346	16.41	-1
44	27496	16.51	-1
44	27646	16.61	-1
44	27796	16.71	-1
44	27946	16.81	-1
44	28096	16.91	-1
44	28250	17.01	-1
44	28400	17.11	-1
44	28550	17.21	-1
44	28700	17.31	-1
44	28850	17.41	-1
44	29000	17.51	-1
44	29150	17.61	-1
44	29300	17.71	-1
44	29450	17.81	-1
44	29600	17.91	-1
44	29754	18.01	-1
44	29904	18.11	-1
44	30054	18.21	-1
44	30204	18.31	-1
44	30354	18.41	-1
44	30504	18.51	-1
44	30654	18.61	-1
44	30804	18.71	-1
44	30954	18.81	-1
44	31104	18.91	-1
44	31258	19.01	-1
44	31408	19.11	-1
44	31558	19.21	-1
44	31708	19.31	-1
44	31858	19.41	-1
44	32008	19.51	-1
44	32158	19.61	-1
44	32308	19.71	-1
44	32458	19.81	-1
44	32608	19.91	-1
44	32762	20.01	-1
44	32912	20.11	-1
44	33062	20.21	-1
44	33212	20.31	-1
44	33362	20.41	-1
44	33512	20.51	-1
44	33662	20.61	-1
44	33812	20.71	-1
44	33962	20.81	-1
44	34112	20.91	-1
44	34266	21.01	-1
44	34416	21.11	-1
44	34566	21.21	-1
44	34716	21.31	-1
44	34866	21.41	-1
44	35016	21.51	-1
44	35166	21.61	-1
44	35316	21.71	-1
44	35466	21.81	-1
44	35616	21.91	-1
44	35770	22.01	-1
44	35920	22.11	-1
44	36070	22.21	-1
44	36220	22.31	-1
44	36370	22.41	-1
44	36520	22.51	-1
44	36670	22.61	-1
44	36820	22.71	-1
44	36970	22.81	-1
44	37120	22.91	-1
44	37274	23.01	-1
44	37424	23.11	-1
44	37574	23.21	-1
44	37724	23.31	-1
44	37874	23.41	-1
44	38024	23.51	-1
44	38174	23.61	-1
44	38324	23.71	-1
44	38474	23.81	-1
44	38624	23.91	-1
44	38778	24.01	-1
44	38928	24.11	-1
44	39078	24.21	-1
44	39228	24.31	-1
44	39378	24.41	-1
44	39528	24.51	-1
44	39678	24.61	-1
44	39828	24.71	-1
44	39978	24.81	-1
44	40128	24.91	-1
44	40282	25.01	-1
44	40432	25.11	-1
44	40582	25.21	-1
44	40732	25.31	-1
44	40882	25.41	-1
44	41032	25.51	-1
44	41182	25.61	-1
44	41333	25.71	-1
44	41483	25.81	-1
44	41633	25.91	-1
44	41787	26.01	-1
44	41937	26.11	-1
44	42087	26.21	-1
44	42237	26.31	-1
44	42387	26.41	-1
44	42537	26.51	-1
44	42687	26.61	-1
44	42837	26.71	-1
44	42987	26.81	-1
44	43137	26.91	-1
44	43291	27.01	-1
44	43441	27.11	-1
44	43591	27.21	-1
44	43741	27.31	-1
44	43891	27.41	-1
44	44041	27.51	-1
44	44191	27.61	-1
44	44341	27.71	-1
44	44491	27.81	-1
44	44641	27.91	-1
44	44795	28.01	-1
44	44945	28.11	-1
44	45095	28.21	-1
44	45245	28.31	-1
44	45395	28.41	-1
44	45545	28.51	-1
44	45695	28.61	-1
44	45845	28.71	-1
44	45995	28.81	-1
44	46145	28.91	-1
44	46299	29.01	-1
44	46449	29.11	-1
44	46599	29.21	-1
44	46749	29.31	-1
44	46899	29.41	-1
44	47049	29.51	-1
44	47199	29.61	-1
44	47349	29.71	-1
44	47499	29.81	-1
44	47649	29.91	-1
44	47803	30.01	-1
44	47953	30.11	-1
44	48103	30.21	-1
44	48253	30.31	-1
44	48403	30.41	-1
44	48553	30.51	-1
44	48703	30.61	-1
44	48853	30.71	-1
44	49003	30.81	-1
44	49153	30.91	-1
44	49307	31.01	-1
44	49457	31.11	-1
44	49607	31.21	-1
44	49757	31.31	-1
44	49907	31.41	-1
44	50057	31.51	-1
44	50207	31.61	-1
44	50357	31.71	-1
44	50507	31.81	-1
44	50657	31.91	-1
44	50811	32.01	-1
44	50961	32.11	-1
44	51111	32.21	-1
44	51261	32.31	-1
44	51411	32.41	-1
44	51561	32.51	-1
46	26	0.21	3
46	176	0.31	3
46	326	0.41	3
46	476	0.51	3
46	626	0.61	3
46	776	0.71	3
46	926	0.81	3
46	1076	0.91	3
46	1230	1.01	3
46	1381	1.11	3
46	1532	1.21	3
46	1683	1.31	3
46	2046	1.41	3
46	2196	1.51	3
46	2346	1.61	3
46	2496	1.71	3
46	2646	1.81	3
46	2796	1.91	3
46	2950	2.01	3
46	3100	2.11	3
46	3250	2.21	3
46	3400	2.31	3
46	3763	2.41	3
46	3914	2.51	3
46	4064	2.61	3
46	4214	2.71	3
46	4364	2.81	3
46	4514	2.91	3
46	4668	3.01	3
46	4818	3.11	3
46	4968	3.21	3
46	5118	3.31	3
46	5269	3.41	3
46	5676	3.51	3
46	5826	3.61	3
46	5976	3.71	3
46	6126	3.81	3
46	6276	3.91	3
46	6430	4.01	3
46	6580	4.11	3
46	6730	4.21	3
46	6880	4.31	3
46	7030	4.41	3
46	7393	4.51	3
46	7544	4.61	3
46	7694	4.71	3
46	7844	4.81	3
46	7994	4.91	3
46	8148	5.01	3
46	8298	5.11	3
46	8448	5.21	3
46	8598	5.31	3
46	8748	5.41	3
46	8899	5.51	3
46	9262	5.61	3
46	9412	5.71	3
46	9562	5.81	3
46	9712	5.91	3
46	9866	6.01	3
46	10016	6.11	3
46	10166	6.21	3
46	10316	6.31	3
46	10466	6.41	3
46	10616	6.51	3
46	11023	6.61	3
46	11174	6.71	3
46	11324	6.81	3
46	11474	6.91	3
46	11628	7.01	3
46	11778	7.11	3
46	11928	7.21	3
46	12078	7.31	3
46	12228	7.41	3
46	12378	7.51	3
46	12529	7.61	3
46	12892	7.71	3
46	13042	7.81	3
46	13192	7.91	3
46	13346	8.01	3
46	13496	8.11	3
46	13646	8.21	3
46	13796	8.31	3
46	13946	8.41	3
46	14096	8.51	3
46	14246	8.61	3
46	14609	8.71	3
46	14760	8.81	3
46	14910	8.91	3
46	15064	9.01	3
46	15214	9.11	3
46	15364	9.21	3
46	15514	9.31	3
46	15664	9.41	3
46	15814	9.51	3
46	15964	9.61	3
46	16115	9.71	3
46	16522	9.81	3
46	16672	9.91	3
46	16826	10.01	3
46	16976	10.11	3
46	17126	10.21	3
46	17276	10.31	3
46	17426	10.41	3
46	17576	10.51	3
46	17726	10.61	3
46	17876	10.71	3
46	18239	10.81	3
46	18390	10.91	3
46	18544	11.01	3
46	18694	11.11	3
46	18844	11.21	3
46	18994	11.31	3
46	19144	11.41	3
46	19294	11.51	3
46	19444	11.61	3
46	19594	11.71	3
46	19745	11.81	3
46	20108	11.91	3
46	20262	12.01	3
46	20412	12.11	3
46	20562	12.21	3
46	20712	12.31	3
46	20862	12.41	3
46	21012	12.51	3
46	21162	12.61	3
46	21312	12.71	3
46	21462	12.81	3
46	21845	12.91	3
46	22000	13.01	3
46	22150	13.11	3
46	22300	13.21	3
46	22450	13.31	3
46	22600	13.41	3
46	22750	13.51	3
46	22900	13.61	3
46	23050	13.71	3
46	23200	13.81	3
46	23351	13.91	3
46	23738	14.01	3
46	23888	14.11	3
46	24038	14.21	3
46	24188	14.31	3
46	24338	14.41	3
46	24488	14.51	3
46	24638	14.61	3
46	24788	14.71	3
46	24938	14.81	3
46	25088	14.91	3
46	25242	15.01	3
46	25392	15.11	3
46	25542	15.21	3
46	25692	15.31	3
46	25842	15.41	3
46	25992	15.51	3
46	26142	15.61	3
46	26292	15.71	3
46	26442	15.81	3
46	26592	15.91	3
46	26746	16.01	3
46	26896	16.11	3
46	27046	16.21	3
46	27196	16.31	3
46	27346	16.41	3
46	27496	16.51	3
46	27646	16.61	3
46	27796	16.71	3
46	27946	16.81	3
46	28096	16.91	3
46	28250	17.01	3
46	28400	17.11	3
46	28550	17.21	3
46	28700	17.31	3
46	28850	17.41	3
46	29000	17.51	3
46	29150	17.61	3
46	29300	17.71	3
46	29450	17.81	3
46	29600	17.91	3
46	29754	18.01	3
46	29904	18.11	3
46	30054	18.21	3
46	30204	18.31	3
46	30354	18.41	3
46	30504	18.51	3
46	30654	18.61	3
46	30804	18.71	3
46	30954	18.81	3
46	31104	18.91	3
46	31258	19.01	3
46	31408	19.11	3
46	31558	19.21	3
46	31708	19.31	3
46	31858	19.41	3
46	32008	19.51	3
46	32158	19.61	3
46	32308	19.71	3
46	32458	19.81	3
46	32608	19.91	3
46	32762	20.01	3
46	32912	20.11	3
46	33062	20.21	3
46	33212	20.31	3
46	33362	20.41	3
46	33512	20.51	3
46	33662	20.61	3
46	33812	20.71	3
46	33962	20.81	3
46	34112	20.91	3
46	34266	21.01	3
46	34416	21.11	3
46	34566	21.21	3
46	34716	21.31	3
46	34866	21.41	3
46	35016	21.51	3
46	35166	21.61	3
46	35316	21.71	3
46	35466	21.81	3
46	35616	21.91	3
46	35770	22.01	3
46	35920	22.11	3
46	36070	22.21	3
46	36220	22.31	3
46	36370	22.41	3
46	36520	22.51	3
46	36670	22.61	3
46	36820	22.71	3
46	36970	22.81	3
46	37120	22.91	3
46	37274	23.01	3
46	37424	23.11	3
46	37574	23.21	3
46	37724	23.31	3
46	37874	23.41	3
46	38024	23.51	3
46	38174	23.61	3
46	38324	23.71	3
46	38474	23.81	3
46	38624	23.91	3
46	38778	24.01	3
46	38928	24.11	3
46	39078	24.21	3
46	39228	24.31	3
46	39378	24.41	3
46	39528	24.51	3
46	39678	24.61	3
46	39828	24.71	3
46	39978	24.81	3
46	40128	24.91	3
46	40282	25.01	3
46	40432	25.11	3
46	40582	25.21	3
46	40732	25.31	3
46	40882	25.41	3
46	41032	25.51	3
46	41182	25.61	3
46	41333	25.71	3
46	41483	25.81	3
46	41633	25.91	3
46	41787	26.01	3
46	41937	26.11	3
46	42087	26.21	3
46	42237	26.31	3
46	42387	26.41	3
46	42537	26.51	3
46	42687	26.61	3
46	42837	26.71	3
46	42987	26.81	3
46	43137	26.91	3
46	43291	27.01	3
46	43441	27.11	3
46	43591	27.21	3
46	43741	27.31	3
46	43891	27.41	3
46	44041	27.51	3
46	44191	27.61	3
46	44341	27.71	3
46	44491	27.81	3
46	44641	27.91	3
46	44795	28.01	3
46	44945	28.11	3
46	45095	28.21	3
46	45245	28.31	3
46	45395	28.41	3
46	45545	28.51	3
46	45695	28.61	3
46	45845	28.71	3
46	45995	28.81	3
46	46145	28.91	3
46	46299	29.01	3
46	46449	29.11	3
46	46599	29.21	3
46	46749	29.31	3
46	46899	29.41	3
46	47049	29.51	3
46	47199	29.61	3
46	47349	29.71	3
46	47499	29.81	3
46	47649	29.91	3
46	47803	30.01	3
46	47953	30.11	3
46	48103	30.21	3
46	48253	30.31	3
46	48403	30.41	3
46	48553	30.51	3
46	48703	30.61	3
46	48853	30.71	3
46	49003	30.81	3
46	49153	30.91	3
46	49307	31.01	3
46	49457	31.11	3
46	49607	31.21	3
46	49757	31.31	3
46	49907	31.41	3
46	50057	31.51	3
46	50207	31.61	3
46	50357	31.71	3
46	50507	31.81	3
46	50657	31.91	3
46	50811	32.01	3
46	50961	32.11	3
46	51111	32.21	3
46	51261	32.31	3
46	51411	32.41	3
46	51561	32.51	3
67	1191	1	0
67	2911	2	0
67	4629	3	0
67	6391	4	0
67	8109	5	0
67	9827	6	0
67	11589	7	0
67	13307	8	0
67	15025	9	0
67	16787	10	0
67	18505	11	0
67	20223	12	0
67	21961	13	0
67	23699	14	0
67	25203	15	0
67	26707	16	0
67	28211	17	0
67	29715	18	0
67	31219	19	0
67	32723	20	0
67	34227	21	0
67	35731	22	0
67	37235	23	0
67	38739	24	0
67	40243	25	0
67	41748	26	0
67	43252	27	0
67	44756	28	0
67	46260	29	0
67	47764	30	0
67	49268	31	0
67	50772	32	0
66	1191	1	0.009679
66	2911	2	0.01300564673
66	4629	3	0.01300539382
66	6391	4	0.013053158062
66	8109	5	0.01300492752
66	9827	6	0.013004698806
66	11589	7	0.01314747188
66	13307	8	0.013004247024
66	15025	9	0.013004024228
66	16787	10	0.013146803316
66	18505	11	0.01300358411
66	20223	12	0.013003366518
66	21961	13	0.013003150926
66	23699	14	0.013003069244
66	25203	15	0.01249
66	26707	16	0.01249
66	28211	17	0.01249
66	29715	18	0.01249
66	31219	19	0.01249
66	32723	20	0.01249
66	34227	21	0.01249
66	35731	22	0.01249
66	37235	23	0.01249
66	38739	24	0.01249
66	40243	25	0.01249
66	41748	26	0.01249
66	43252	27	0.01249
66	44756	28	0.01249
66	46260	29	0.01249
66	47764	30	0.01249
66	49268	31	0.01249
66	50772	32	0.01249
65	1191	1	3
65	2911	2	3
65	4629	3	3
65	6391	4	3
65	8109	5	3
65	9827	6	3
65	11589	7	3
65	13307	8	3
65	15025	9	3
65	16787	10	3
65	18505	11	3
65	20223	12	3
65	21961	13	3
65	23699	14	3
65	25203	15	3
65	26707	16	3
65	28211	17	3
65	29715	18	3
65	31219	19	3
65	32723	20	3
65	34227	21	3
65	35731	22	3
65	37235	23	3
65	38739	24	3
65	40243	25	3
65	41748	26	3
65	43252	27	3
65	44756	28	3
65	46260	29	3
65	47764	30	3
65	49268	31	3
65	50772	32	3
19	15	0.13	2.1763587654741
19	16	0.14	2.1762060308025
19	17	0.15	2.1760563339034
19	18	0.16	2.1759096445761
19	19	0.17	2.1757659326225
19	20	0.18	2.1756251678512
19	21	0.19	2.1754873200851
19	22	0.2	2.1753523591664
19	27	0.21	2.1752202549617
19	62	0.22	2.1750909773682
19	97	0.23	2.1749644963185
19	98	0.24	2.1748407817852
19	99	0.25	2.1747198037881
19	134	0.26	2.1746015323969
19	135	0.27	2.1744859377376
19	136	0.28	2.1743729899968
19	137	0.29	2.1742626594255
19	138	0.3	2.174154916345
19	177	0.31	2.1740497311507
19	212	0.32	2.1739470743167
19	247	0.33	2.1738469163994
19	248	0.34	2.1737492280434
19	249	0.35	2.173653979983
19	284	0.36	2.1735611430482
19	285	0.37	2.1734706881683
19	286	0.38	2.1733825863743
19	287	0.39	2.1732968088043
19	288	0.4	2.1732133267055
19	327	0.41	2.17313211144
19	362	0.42	2.1730531344853
19	397	0.43	2.1729763674397
19	398	0.44	2.1729017820245
19	399	0.45	2.1728293500875
19	434	0.46	2.1727590436068
19	435	0.47	2.1726908346916
19	436	0.48	2.172624695588
19	437	0.49	2.1725605986794
19	438	0.5	2.17249851649
19	477	0.51	2.1724384216885
19	512	0.52	2.1723802870887
19	547	0.53	2.1723240856526
19	548	0.54	2.1722697904944
19	549	0.55	2.1722173748809
19	584	0.56	2.1721668122343
19	585	0.57	2.1721180761348
19	586	0.58	2.172071140322
19	587	0.59	2.1720259786971
19	588	0.6	2.1719825653262
19	627	0.61	2.1719408744402
19	662	0.62	2.1719008804372
19	697	0.63	2.1718625578852
19	698	0.64	2.1718258815223
19	699	0.65	2.1717908262593
19	734	0.66	2.1717573671816
19	735	0.67	2.1717254795495
19	736	0.68	2.1716951388001
19	737	0.69	2.1716663205492
19	738	0.7	2.1716390005924
19	777	0.71	2.1716131549045
19	812	0.72	2.1715887596444
19	847	0.73	2.1715657911523
19	848	0.74	2.1715442259536
19	849	0.75	2.1715240407587
19	884	0.76	2.1715052124633
19	885	0.77	2.1714877181509
19	886	0.78	2.171471535092
19	887	0.79	2.1714566407462
19	888	0.8	2.1714430127618
19	927	0.81	2.1714306289784
19	962	0.82	2.1714194674248
19	997	0.83	2.1714095063211
19	998	0.84	2.1714007240793
19	999	0.85	2.1713930993041
19	1034	0.86	2.1713866107919
19	1035	0.87	2.1713812375322
19	1036	0.88	2.1713769587082
19	1037	0.89	2.171373753697
19	1038	0.9	2.1713716020681
19	1077	0.91	2.1713704835865
19	1112	0.92	2.171370378211
19	1147	0.93	2.1713712660947
19	1148	0.94	2.1713731275852
19	1149	0.95	2.1713759432245
19	1184	0.96	2.1713796937487
19	1185	0.97	2.1713843600885
19	1186	0.98	2.1713899233693
19	1187	0.99	2.1713963649106
19	1192	1	2.1714036662261
19	1231	1.01	2.1714118090229
19	1266	1.02	2.1714207752021
19	1301	1.03	2.1714305468589
19	1302	1.04	2.171441106281
19	1303	1.05	2.1714524359493
19	1338	1.06	2.1714645185367
19	1339	1.07	2.1714773369085
19	1340	1.08	2.1714908741224
19	1341	1.09	2.1715051134258
19	1342	1.1	2.1715200382587
19	1382	1.11	2.1715356322509
19	1417	1.12	2.1715518792218
19	1452	1.13	2.1715687631793
19	1453	1.14	2.1715862683214
19	1454	1.15	2.1716043790338
19	1489	1.16	2.171623079889
19	1490	1.17	2.1716423556473
19	1491	1.18	2.171662191254
19	1492	1.19	2.171682571841
19	1493	1.2	2.171703482724
19	1533	1.21	2.1717249094032
19	1568	1.22	2.1717468375618
19	1603	1.23	2.1717692530656
19	1604	1.24	2.1717921419619
19	1605	1.25	2.1718154904791
19	1640	1.26	2.1718392850249
19	1641	1.27	2.1718635121865
19	1642	1.28	2.1718881587292
19	1643	1.29	2.1719132115965
19	1644	1.3	2.171938657907
19	1684	1.31	2.1719644849552
19	1931	1.32	2.17199068021
19	1966	1.33	2.1720172313142
19	1967	1.34	2.172044126083
19	1968	1.35	2.1720713525032
19	2004	1.36	2.1720988987321
19	2005	1.37	2.1721267530964
19	2006	1.38	2.1721549040918
19	2007	1.39	2.1721833403811
19	2008	1.4	2.1722120507936
19	2047	1.41	2.1722410243235
19	2082	1.42	2.1722702501298
19	2117	1.43	2.1722997175345
19	2118	1.44	2.1723294160211
19	2119	1.45	2.1723593352347
19	2154	1.46	2.1723894649803
19	2155	1.47	2.1724197952208
19	2156	1.48	2.1724503160769
19	2157	1.49	2.1724810178259
19	2158	1.5	2.1725118909007
19	2197	1.51	2.1725429258873
19	2232	1.52	2.172574113525
19	2267	1.53	2.1726054447051
19	2268	1.54	2.1726369104691
19	2269	1.55	2.1726685020078
19	2304	1.56	2.1727002106598
19	2305	1.57	2.1727320279108
19	2306	1.58	2.1727639453924
19	2307	1.59	2.1727959548804
19	2308	1.6	2.1728280482944
19	2347	1.61	2.172860217695
19	2382	1.62	2.1728924552844
19	2417	1.63	2.1729247534041
19	2418	1.64	2.1729571045343
19	2419	1.65	2.1729895012915
19	2454	1.66	2.1730219364285
19	2455	1.67	2.1730544028328
19	2456	1.68	2.1730868935245
19	2457	1.69	2.1731194016569
19	2458	1.7	2.1731519205143
19	2497	1.71	2.1731844435089
19	2532	1.72	2.1732169641831
19	2567	1.73	2.1732494762051
19	2568	1.74	2.1732819733699
19	2569	1.75	2.1733144495968
19	2604	1.76	2.1733468989278
19	2605	1.77	2.1733793155279
19	2606	1.78	2.1734116936827
19	2607	1.79	2.1734440277972
19	2608	1.8	2.1734763123949
19	2647	1.81	2.173508542117
19	2682	1.82	2.1735407117191
19	2717	1.83	2.1735728160728
19	2718	1.84	2.1736048501622
19	2719	1.85	2.1736368090841
19	2754	1.86	2.1736686880454
19	2755	1.87	2.1737004823636
19	2756	1.88	2.1737321874646
19	2757	1.89	2.1737637988809
19	2758	1.9	2.173795312251
19	2797	1.91	2.1738267233185
19	2832	1.92	2.1738580279308
19	2867	1.93	2.1738892220363
19	2868	1.94	2.1739203016865
19	2869	1.95	2.173951263031
19	2904	1.96	2.1739821023191
19	2905	1.97	2.174012815897
19	2906	1.98	2.174043400208
19	2907	1.99	2.1740738517898
19	2912	2	2.1741041672739
19	2951	2.01	2.1741343433852
19	2986	2.02	2.1741643769395
19	3021	2.03	2.1741942648435
19	3022	2.04	2.1742240040925
19	3023	2.05	2.1742535917705
19	3058	2.06	2.1742830250484
19	3059	2.07	2.1743123011825
19	3060	2.08	2.174341417514
19	3061	2.09	2.174370371467
19	3062	2.1	2.1743991605487
19	3101	2.11	2.1744277823472
19	3136	2.12	2.1744562345311
19	3171	2.13	2.1744845148467
19	3172	2.14	2.1745126211195
19	3173	2.15	2.1745405512509
19	3208	2.16	2.1745683032188
19	3209	2.17	2.1745958750751
19	3210	2.18	2.1746232649452
19	3211	2.19	2.1746504710276
19	3212	2.2	2.1746774915912
19	3251	2.21	2.1747043249761
19	3286	2.22	2.1747309695907
19	3321	2.23	2.174757423913
19	3322	2.24	2.1747836864865
19	3323	2.25	2.1748097559224
19	3358	2.26	2.1748356308961
19	3359	2.27	2.174861310147
19	3360	2.28	2.174886792478
19	3361	2.29	2.1749120767545
19	3362	2.3	2.1749371619018
19	3401	2.31	2.1749620469065
19	3436	2.32	2.1749867308135
19	3471	2.33	2.1750112127258
19	3472	2.34	2.1750354918044
19	3473	2.35	2.1750595672656
19	3509	2.36	2.1750834383818
19	3722	2.37	2.1751071044795
19	3723	2.38	2.1751305649385
19	3724	2.39	2.1751538191909
19	3725	2.4	2.1751768667204
19	3765	2.41	2.1751997070619
19	3800	2.42	2.175222339799
19	3835	2.43	2.1752447645654
19	3836	2.44	2.1752669810423
19	3837	2.45	2.1752889889574
19	3872	2.46	2.1753107880849
19	3873	2.47	2.1753323782445
19	3874	2.48	2.1753537593012
19	3875	2.49	2.1753749311624
19	3876	2.5	2.1753958937787
19	3915	2.51	2.1754166471432
19	3950	2.52	2.1754371912894
19	3985	2.53	2.1754575262918
19	3986	2.54	2.1754776522645
19	3987	2.55	2.1754975693598
19	4022	2.56	2.1755172777677
19	4023	2.57	2.1755367777166
19	4024	2.58	2.17555606947
19	4025	2.59	2.1755751533284
19	4026	2.6	2.1755940296255
19	4065	2.61	2.1756126987307
19	4100	2.62	2.175631161046
19	4135	2.63	2.1756494170058
19	4136	2.64	2.1756674670773
19	4137	2.65	2.1756853117584
19	4172	2.66	2.1757029515777
19	4173	2.67	2.1757203870935
19	4174	2.68	2.175737618893
19	4175	2.69	2.1757546475919
19	4176	2.7	2.1757714738339
19	4215	2.71	2.1757880982895
19	4250	2.72	2.1758045216559
19	4285	2.73	2.1758207446556
19	4286	2.74	2.1758367680366
19	4287	2.75	2.1758525925718
19	4322	2.76	2.1758682190567
19	4323	2.77	2.1758836483111
19	4324	2.78	2.1758988811775
19	4325	2.79	2.1759139185194
19	4326	2.8	2.1759287612218
19	4365	2.81	2.1759434101919
19	4400	2.82	2.1759578663552
19	4435	2.83	2.1759721306587
19	4436	2.84	2.175986204067
19	4437	2.85	2.176000087564
19	4472	2.86	2.1760137821506
19	4473	2.87	2.1760272888468
19	4474	2.88	2.1760406086883
19	4475	2.89	2.1760537427269
19	4476	2.9	2.1760666920304
19	4515	2.91	2.1760794576829
19	4550	2.92	2.1760920407815
19	4585	2.93	2.1761044424391
19	4586	2.94	2.1761166637812
19	4587	2.95	2.176128705948
19	4622	2.96	2.1761405700906
19	4623	2.97	2.1761522573742
19	4624	2.98	2.1761637689749
19	4625	2.99	2.1761751060802
19	4630	3	2.1761862698885
19	4669	3.01	2.176197261609
19	4704	3.02	2.1762080824612
19	4739	3.03	2.1762187336733
19	4740	3.04	2.1762292164839
19	4741	3.05	2.1762395321391
19	4776	3.06	2.1762496818933
19	4777	3.07	2.1762596670103
19	4778	3.08	2.1762694887598
19	4779	3.09	2.1762791484195
19	4780	3.1	2.1762886472741
19	4819	3.11	2.1762979866134
19	4854	3.12	2.1763071677348
19	4889	3.13	2.1763161919399
19	4890	3.14	2.176325060536
19	4891	3.15	2.1763337748355
19	4926	3.16	2.176342336155
19	4927	3.17	2.1763507458155
19	4928	3.18	2.1763590051423
19	4929	3.19	2.1763671154631
19	4930	3.2	2.1763750781094
19	4969	3.21	2.1763828944163
19	5004	3.22	2.1763905657199
19	5039	3.23	2.1763980933595
19	5040	3.24	2.1764054786759
19	5041	3.25	2.1764127230113
19	5076	3.26	2.17641982771
19	5077	3.27	2.1764267941168
19	5078	3.28	2.1764336235778
19	5079	3.29	2.1764403174391
19	5080	3.3	2.1764468770463
19	5119	3.31	2.1764533037465
19	5154	3.32	2.1764595988848
19	5189	3.33	2.1764657638071
19	5190	3.34	2.1764717998575
19	5191	3.35	2.1764777083801
19	5226	3.36	2.1764834907164
19	5227	3.37	2.1764891482064
19	5228	3.38	2.1764946821897
19	5229	3.39	2.1765000940024
19	5230	3.4	2.1765053849787
19	5270	3.41	2.1765105564508
19	5561	3.42	2.1765156097477
19	5596	3.43	2.1765205461962
19	5597	3.44	2.1765253671188
19	5598	3.45	2.1765300738359
19	5634	3.46	2.1765346676643
19	5635	3.47	2.1765391499161
19	5636	3.48	2.1765435219005
19	5637	3.49	2.1765477849224
19	5638	3.5	2.1765519402826
19	5677	3.51	2.1765559892767
19	5712	3.52	2.1765599331969
19	5747	3.53	2.1765637733304
19	5748	3.54	2.1765675109587
19	5749	3.55	2.1765711473591
19	5784	3.56	2.1765746838035
19	5785	3.57	2.1765781215583
19	5786	3.58	2.1765814618843
19	5787	3.59	2.1765847060376
19	5788	3.6	2.1765878552667
19	5827	3.61	2.1765909108161
19	5862	3.62	2.1765938739241
19	5897	3.63	2.1765967458213
19	5898	3.64	2.1765995277332
19	5899	3.65	2.1766022208793
19	5934	3.66	2.1766048264715
19	5935	3.67	2.1766073457159
19	5936	3.68	2.1766097798111
19	5937	3.69	2.1766121299503
19	5938	3.7	2.1766143973185
19	5977	3.71	2.1766165830939
19	6012	3.72	2.176618688448
19	6047	3.73	2.1766207145445
19	6048	3.74	2.1766226625406
19	6049	3.75	2.1766245335852
19	6084	3.76	2.1766263288209
19	6085	3.77	2.1766280493818
19	6086	3.78	2.176629696395
19	6087	3.79	2.1766312709793
19	6088	3.8	2.1766327742462
19	6127	3.81	2.1766342072996
19	6162	3.82	2.1766355712347
19	6197	3.83	2.1766368671397
19	6198	3.84	2.1766380960948
19	6199	3.85	2.1766392591711
19	6234	3.86	2.1766403574325
19	6235	3.87	2.1766413919346
19	6236	3.88	2.1766423637247
19	6237	3.89	2.1766432738415
19	6238	3.9	2.1766441233166
19	6277	3.91	2.1766449131724
19	6312	3.92	2.176645644422
19	6347	3.93	2.1766463180722
19	6348	3.94	2.1766469351198
19	6349	3.95	2.1766474965543
19	6384	3.96	2.1766480033551
19	6385	3.97	2.1766484564951
19	6386	3.98	2.1766488569366
19	6387	3.99	2.1766492056351
19	6392	4	2.1766495035362
19	6431	4.01	2.1766497515783
19	6466	4.02	2.1766499506902
19	6501	4.03	2.1766501017917
19	6502	4.04	2.1766502057952
19	6503	4.05	2.1766502636034
19	6538	4.06	2.1766502761103
19	6539	4.07	2.1766502442022
19	6540	4.08	2.1766501687565
19	6541	4.09	2.1766500506413
19	6542	4.1	2.1766498907167
19	6581	4.11	2.1766496898337
19	6616	4.12	2.1766494488348
19	6651	4.13	2.1766491685536
19	6652	4.14	2.1766488498155
19	6653	4.15	2.1766484934371
19	6688	4.16	2.1766481002266
19	6689	4.17	2.1766476709827
19	6690	4.18	2.1766472064965
19	6691	4.19	2.1766467075495
19	6692	4.2	2.1766461749156
19	6731	4.21	2.1766456093599
19	6766	4.22	2.176645011639
19	6801	4.23	2.1766443825009
19	6802	4.24	2.1766437226842
19	6803	4.25	2.1766430329204
19	6838	4.26	2.1766423139318
19	6839	4.27	2.1766415664323
19	6840	4.28	2.1766407911278
19	6841	4.29	2.176639988715
19	6842	4.3	2.1766391598832
19	6881	4.31	2.1766383053127
19	6916	4.32	2.1766374256759
19	6951	4.33	2.1766365216366
19	6952	4.34	2.1766355938507
19	6953	4.35	2.1766346429654
19	6988	4.36	2.1766336696206
19	6989	4.37	2.1766326744476
19	6990	4.38	2.1766316580689
19	6991	4.39	2.1766306210999
19	6992	4.4	2.1766295641479
19	7031	4.41	2.1766284878115
19	7066	4.42	2.176627392682
19	7101	4.43	2.1766262793428
19	7102	4.44	2.1766251483687
19	7103	4.45	2.176624000328
19	7139	4.46	2.1766228357803
19	7352	4.47	2.1766216552775
19	7353	4.48	2.1766204593635
19	7354	4.49	2.176619248575
19	7355	4.5	2.1766180234413
19	7395	4.51	2.1766167844842
19	7430	4.52	2.1766155322176
19	7465	4.53	2.176614267148
19	7466	4.54	2.176612989774
19	7467	4.55	2.1766117005879
19	7502	4.56	2.1766104000735
19	7503	4.57	2.1766090887085
19	7504	4.58	2.1766077669626
19	7505	4.59	2.1766064352986
19	7506	4.6	2.1766050941715
19	7545	4.61	2.1766037440307
19	7580	4.62	2.1766023853172
19	7615	4.63	2.1766010184654
19	7616	4.64	2.1765996439028
19	7617	4.65	2.1765982620505
19	7652	4.66	2.1765968733225
19	7653	4.67	2.1765954781257
19	7654	4.68	2.1765940768601
19	7655	4.69	2.1765926699196
19	7656	4.7	2.1765912576919
19	7695	4.71	2.1765898405571
19	7730	4.72	2.1765884188892
19	7765	4.73	2.1765869930561
19	7766	4.74	2.1765855634189
19	7767	4.75	2.1765841303327
19	7802	4.76	2.1765826941465
19	7803	4.77	2.1765812552016
19	7804	4.78	2.176579813835
19	7805	4.79	2.1765783703771
19	7806	4.8	2.1765769251513
19	7845	4.81	2.1765754784757
19	7880	4.82	2.1765740306628
19	7915	4.83	2.1765725820186
19	7916	4.84	2.1765711328432
19	7917	4.85	2.1765696834312
19	7952	4.86	2.1765682340716
19	7953	4.87	2.1765667850472
19	7954	4.88	2.1765653366365
19	7955	4.89	2.1765638891106
19	7956	4.9	2.1765624427361
19	7995	4.91	2.176560997774
19	8030	4.92	2.1765595544799
19	8065	4.93	2.1765581131045
19	8066	4.94	2.1765566738925
19	8067	4.95	2.1765552370842
19	8102	4.96	2.1765538029134
19	8103	4.97	2.17655237161
19	8104	4.98	2.1765509433987
19	8105	4.99	2.1765495184985
19	8110	5	2.176548097124
19	8149	5.01	2.1765466794842
19	8184	5.02	2.1765452657847
19	8219	5.03	2.176543856225
19	8220	5.04	2.1765424510002
19	8221	5.05	2.1765410503015
19	8256	5.06	2.1765396543142
19	8257	5.07	2.1765382632199
19	8258	5.08	2.1765368771948
19	8259	5.09	2.1765354964122
19	8260	5.1	2.1765341210391
19	8299	5.11	2.1765327512398
19	8334	5.12	2.1765313871737
19	8369	5.13	2.1765300289957
19	8370	5.14	2.1765286768564
19	8371	5.15	2.1765273309023
19	8406	5.16	2.1765259912768
19	8407	5.17	2.1765246581179
19	8408	5.18	2.1765233315607
19	8409	5.19	2.1765220117356
19	8410	5.2	2.1765206987689
19	8449	5.21	2.1765193927841
19	8484	5.22	2.1765180939004
19	8519	5.23	2.1765168022333
19	8520	5.24	2.1765155178939
19	8521	5.25	2.1765142409911
19	8556	5.26	2.1765129716294
19	8557	5.27	2.1765117099093
19	8558	5.28	2.1765104559288
19	8559	5.29	2.1765092097821
19	8560	5.3	2.1765079715594
19	8599	5.31	2.1765067413488
19	8634	5.32	2.176505519234
19	8669	5.33	2.1765043052963
19	8670	5.34	2.1765030996128
19	8671	5.35	2.1765019022581
19	8706	5.36	2.1765007133043
19	8707	5.37	2.1764995328194
19	8708	5.38	2.1764983608683
19	8709	5.39	2.176497197514
19	8710	5.4	2.1764960428161
19	8749	5.41	2.1764948968316
19	8784	5.42	2.1764937596139
19	8819	5.43	2.1764926312139
19	8820	5.44	2.1764915116805
19	8821	5.45	2.1764904010588
19	8856	5.46	2.1764892993924
19	8857	5.47	2.1764882067214
19	8858	5.48	2.1764871230833
19	8859	5.49	2.1764860485143
19	8860	5.5	2.1764849830468
19	8900	5.51	2.1764839267111
19	9147	5.52	2.1764828795351
19	9182	5.53	2.1764818415451
19	9183	5.54	2.1764808127645
19	9184	5.55	2.1764797932143
19	9220	5.56	2.1764787829133
19	9221	5.57	2.1764777818781
19	9222	5.58	2.1764767901235
19	9223	5.59	2.1764758076622
19	9224	5.6	2.1764748345043
19	9263	5.61	2.176473870658
19	9298	5.62	2.1764729161302
19	9333	5.63	2.1764719709252
19	9334	5.64	2.1764710350452
19	9335	5.65	2.1764701084912
19	9370	5.66	2.1764691912623
19	9371	5.67	2.1764682833549
19	9372	5.68	2.1764673847647
19	9373	5.69	2.1764664954848
19	9374	5.7	2.1764656155071
19	9413	5.71	2.1764647448221
19	9448	5.72	2.1764638834183
19	9483	5.73	2.1764630312823
19	9484	5.74	2.1764621883993
19	9485	5.75	2.1764613547539
19	9520	5.76	2.1764605303276
19	9521	5.77	2.1764597151015
19	9522	5.78	2.1764589090557
19	9523	5.79	2.1764581121676
19	9524	5.8	2.1764573244138
19	9563	5.81	2.1764565457698
19	9598	5.82	2.1764557762097
19	9633	5.83	2.1764550157069
19	9634	5.84	2.1764542642321
19	9635	5.85	2.1764535217555
19	9670	5.86	2.1764527882466
19	9671	5.87	2.1764520636735
19	9672	5.88	2.1764513480031
19	9673	5.89	2.1764506412007
19	9674	5.9	2.1764499432321
19	9713	5.91	2.1764492540599
19	9748	5.92	2.1764485736471
19	9783	5.93	2.1764479019552
19	9784	5.94	2.176447238945
[...]
2	66555	55.23	931.55726268403
2	66556	55.24	931.69615168374
2	66557	55.25	931.83504068346
2	66576	55.26	931.97392968317
2	66577	55.27	932.11281868289
2	66578	55.28	932.2517076826
2	66579	55.29	932.39059668231
2	66580	55.3	932.52948568203
2	66583	55.31	932.66837468175
2	66584	55.32	932.80726368146
2	66603	55.33	932.94615268118
2	66604	55.34	933.0850416809
2	66605	55.35	933.22393068061
2	66624	55.36	933.36281968033
2	66625	55.37	933.50170868005
2	66626	55.38	933.64059767977
2	66627	55.39	933.77948667949
2	66628	55.4	933.91837567921
2	66631	55.41	934.05726467893
2	66632	55.42	934.19615367865
2	66651	55.43	934.33504267837
2	66652	55.44	934.47393167809
2	66653	55.45	934.61282067782
2	66672	55.46	934.75170967754
2	66673	55.47	934.89059867726
2	66674	55.48	935.02948767698
2	66675	55.49	935.16837667671
2	66676	55.5	935.30726567643
2	66679	55.51	935.44615467616
2	66680	55.52	935.58504367588
2	66699	55.53	935.72393267561
2	66700	55.54	935.86282167533
2	66701	55.55	936.00171067506
2	66720	55.56	936.14059967479
2	66721	55.57	936.27948867451
2	66722	55.58	936.41837767424
2	66723	55.59	936.55726667397
2	66724	55.6	936.6961556737
2	66727	55.61	936.83504467343
2	66728	55.62	936.97393367316
2	66747	55.63	937.11282267289
2	66748	55.64	937.25171167262
2	66749	55.65	937.39060067235
2	66768	55.66	937.52948967208
2	66769	55.67	937.66837867181
2	66770	55.68	937.80726767154
2	66771	55.69	937.94615667127
2	66772	55.7	938.08504567101
2	66775	55.71	938.22393467074
2	66776	55.72	938.36282367047
2	66795	55.73	938.50171267021
2	66796	55.74	938.64060166994
2	66797	55.75	938.77949066968
2	66816	55.76	938.91837966941
2	66817	55.77	939.05726866915
2	66818	55.78	939.19615766888
2	66819	55.79	939.33504666862
2	66820	55.8	939.47393566836
2	66823	55.81	939.61282466809
2	66824	55.82	939.75171366783
2	66843	55.83	939.89060266757
2	66844	55.84	940.02949166731
2	66845	55.85	940.16838066705
2	66864	55.86	940.30726966679
2	66865	55.87	940.44615866653
2	66866	55.88	940.58504766627
2	66867	55.89	940.72393666601
2	66868	55.9	940.86282566575
2	66871	55.91	941.00171466549
2	66872	55.92	941.14060366523
2	66891	55.93	941.27949266497
2	66892	55.94	941.41838166472
2	66893	55.95	941.55727066446
2	66912	55.96	941.6961596642
2	66913	55.97	941.83504866395
2	66914	55.98	941.97393766369
2	66915	55.99	942.11282666343
2	66918	56	942.25171566318
2	66921	56.01	942.39060466292
2	66922	56.02	942.52949366267
2	66941	56.03	942.66838266242
2	66942	56.04	942.80727166216
2	66943	56.05	942.94616066191
2	66962	56.06	943.08504966166
2	66963	56.07	943.2239386614
2	66964	56.08	943.36282766115
2	66965	56.09	943.5017166609
2	66966	56.1	943.64060566065
2	66969	56.11	943.7794946604
2	66970	56.12	943.91838366015
2	66989	56.13	944.0572726599
2	66990	56.14	944.19616165965
2	66991	56.15	944.3350506594
2	67010	56.16	944.47393965915
2	67011	56.17	944.6128286589
2	67012	56.18	944.75171765866
2	67013	56.19	944.89060665841
2	67014	56.2	945.02949565816
2	67017	56.21	945.16838465791
2	67018	56.22	945.30727365767
2	67037	56.23	945.44616265742
2	67038	56.24	945.58505165718
2	67039	56.25	945.72394065693
2	67058	56.26	945.86282965669
2	67059	56.27	946.00171865644
2	67060	56.28	946.1406076562
2	67061	56.29	946.27949665595
2	67062	56.3	946.41838565571
2	67065	56.31	946.55727465547
2	67066	56.32	946.69616365522
2	67085	56.33	946.83505265498
2	67086	56.34	946.97394165474
2	67087	56.35	947.1128306545
2	67106	56.36	947.25171965426
2	67107	56.37	947.39060865402
2	67108	56.38	947.52949765378
2	67109	56.39	947.66838665354
2	67110	56.4	947.8072756533
2	67113	56.41	947.94616465306
2	67114	56.42	948.08505365282
2	67133	56.43	948.22394265258
2	67134	56.44	948.36283165234
2	67135	56.45	948.5017206521
2	67154	56.46	948.64060965187
2	67155	56.47	948.77949865163
2	67156	56.48	948.91838765139
2	67157	56.49	949.05727665116
2	67158	56.5	949.19616565092
2	67161	56.51	949.33505465069
2	67162	56.52	949.47394365045
2	67181	56.53	949.61283265022
2	67182	56.54	949.75172164998
2	67183	56.55	949.89061064975
2	67202	56.56	950.02949964951
2	67203	56.57	950.16838864928
2	67204	56.58	950.30727764905
2	67205	56.59	950.44616664881
2	67206	56.6	950.58505564858
2	67209	56.61	950.72394464835
2	67210	56.62	950.86283364812
2	67229	56.63	951.00172264789
2	67230	56.64	951.14061164766
2	67231	56.65	951.27950064743
2	67250	56.66	951.4183896472
2	67251	56.67	951.55727864697
2	67252	56.68	951.69616764674
2	67253	56.69	951.83505664651
2	67254	56.7	951.97394564628
2	67257	56.71	952.11283464605
2	67258	56.72	952.25172364582
2	67277	56.73	952.3906126456
2	67278	56.74	952.52950164537
2	67279	56.75	952.66839064514
2	67298	56.76	952.80727964491
2	67299	56.77	952.94616864469
2	67300	56.78	953.08505764446
2	67301	56.79	953.22394664424
2	67302	56.8	953.36283564401
2	67305	56.81	953.50172464379
2	67306	56.82	953.64061364356
2	67325	56.83	953.77950264334
2	67326	56.84	953.91839164312
2	67327	56.85	954.05728064289
2	67346	56.86	954.19616964267
2	67347	56.87	954.33505864245
2	67348	56.88	954.47394764222
2	67349	56.89	954.612836642
2	67350	56.9	954.75172564178
2	67353	56.91	954.89061464156
2	67354	56.92	955.02950364134
2	67373	56.93	955.16839264112
2	67374	56.94	955.3072816409
2	67375	56.95	955.44617064068
2	67394	56.96	955.58505964046
2	67395	56.97	955.72394864024
2	67396	56.98	955.86283764002
2	67397	56.99	956.0017266398
2	67400	57	956.14061563958
2	67403	57.01	956.27950463937
2	67404	57.02	956.41839363915
2	67423	57.03	956.55728263893
2	67424	57.04	956.69617163871
2	67425	57.05	956.8350606385
2	67444	57.06	956.97394963828
2	67445	57.07	957.11283863806
2	67446	57.08	957.25172763785
2	67447	57.09	957.39061663763
2	67448	57.1	957.52950563742
2	67451	57.11	957.66839463721
2	67452	57.12	957.80728363699
2	67471	57.13	957.94617263678
2	67472	57.14	958.08506163656
2	67473	57.15	958.22395063635
2	67492	57.16	958.36283963614
2	67493	57.17	958.50172863593
2	67494	57.18	958.64061763571
2	67495	57.19	958.7795066355
2	67496	57.2	958.91839563529
2	67499	57.21	959.05728463508
2	67500	57.22	959.19617363487
2	67519	57.23	959.33506263466
2	67520	57.24	959.47395163445
2	67521	57.25	959.61284063424
2	67540	57.26	959.75172963403
2	67541	57.27	959.89061863382
2	67542	57.28	960.02950763361
2	67543	57.29	960.1683966334
2	67544	57.3	960.30728563319
2	67547	57.31	960.44617463299
2	67548	57.32	960.58506363278
2	67567	57.33	960.72395263257
2	67568	57.34	960.86284163236
2	67569	57.35	961.00173063216
2	67588	57.36	961.14061963195
2	67589	57.37	961.27950863174
2	67590	57.38	961.41839763154
2	67591	57.39	961.55728663133
2	67592	57.4	961.69617563113
2	67595	57.41	961.83506463092
2	67596	57.42	961.97395363072
2	67615	57.43	962.11284263052
2	67616	57.44	962.25173163031
2	67617	57.45	962.39062063011
2	67636	57.46	962.52950962991
2	67637	57.47	962.6683986297
2	67638	57.48	962.8072876295
2	67639	57.49	962.9461766293
2	67640	57.5	963.0850656291
2	67643	57.51	963.22395462889
2	67644	57.52	963.36284362869
2	67663	57.53	963.50173262849
2	67664	57.54	963.64062162829
2	67665	57.55	963.77951062809
2	67684	57.56	963.91839962789
2	67685	57.57	964.05728862769
2	67686	57.58	964.19617762749
2	67687	57.59	964.33506662729
2	67688	57.6	964.4739556271
2	67691	57.61	964.6128446269
2	67692	57.62	964.7517336267
2	67711	57.63	964.8906226265
2	67712	57.64	965.0295116263
2	67713	57.65	965.16840062611
2	67732	57.66	965.30728962591
2	67733	57.67	965.44617862571
2	67734	57.68	965.58506762552
2	67735	57.69	965.72395662532
2	67736	57.7	965.86284562513
2	67739	57.71	966.00173462493
2	67740	57.72	966.14062362474
2	67759	57.73	966.27951262454
2	67760	57.74	966.41840162435
2	67761	57.75	966.55729062415
2	67780	57.76	966.69617962396
2	67781	57.77	966.83506862377
2	67782	57.78	966.97395762357
2	67783	57.79	967.11284662338
2	67784	57.8	967.25173562319
2	67787	57.81	967.39062462299
2	67788	57.82	967.5295136228
2	67807	57.83	967.66840262261
2	67808	57.84	967.80729162242
2	67809	57.85	967.94618062223
2	67828	57.86	968.08506962204
2	67829	57.87	968.22395862185
2	67830	57.88	968.36284762166
2	67831	57.89	968.50173662147
2	67832	57.9	968.64062562128
2	67835	57.91	968.77951462109
2	67836	57.92	968.9184036209
2	67855	57.93	969.05729262071
2	67856	57.94	969.19618162052
2	67857	57.95	969.33507062033
2	67876	57.96	969.47395962015
2	67877	57.97	969.61284861996
2	67878	57.98	969.75173761977
2	67879	57.99	969.89062661958
2	67882	58	970.0295156194
2	67885	58.01	970.16840461921
2	67886	58.02	970.30729361903
2	67905	58.03	970.44618261884
2	67906	58.04	970.58507161865
2	67907	58.05	970.72396061847
2	67926	58.06	970.86284961828
2	67927	58.07	971.0017386181
2	67928	58.08	971.14062761791
2	67929	58.09	971.27951661773
2	67930	58.1	971.41840561755
2	67933	58.11	971.55729461736
2	67934	58.12	971.69618361718
2	67953	58.13	971.835072617
2	67954	58.14	971.97396161681
2	67955	58.15	972.11285061663
2	67974	58.16	972.25173961645
2	67975	58.17	972.39062861627
2	67976	58.18	972.52951761609
2	67977	58.19	972.66840661591
2	67978	58.2	972.80729561573
2	67981	58.21	972.94618461554
2	67982	58.22	973.08507361536
2	68001	58.23	973.22396261518
2	68002	58.24	973.362851615
2	68003	58.25	973.50174061482
2	68022	58.26	973.64062961465
2	68023	58.27	973.77951861447
2	68024	58.28	973.91840761429
2	68025	58.29	974.05729661411
2	68026	58.3	974.19618561393
2	68029	58.31	974.33507461375
2	68030	58.32	974.47396361358
2	68049	58.33	974.6128526134
2	68050	58.34	974.75174161322
2	68051	58.35	974.89063061304
2	68070	58.36	975.02951961287
2	68071	58.37	975.16840861269
2	68072	58.38	975.30729761252
2	68073	58.39	975.44618661234
2	68074	58.4	975.58507561217
2	68077	58.41	975.72396461199
2	68078	58.42	975.86285361182
2	68097	58.43	976.00174261164
2	68098	58.44	976.14063161147
2	68099	58.45	976.27952061129
2	68118	58.46	976.41840961112
2	68119	58.47	976.55729861095
2	68120	58.48	976.69618761077
2	68121	58.49	976.8350766106
2	68122	58.5	976.97396561043
2	68125	58.51	977.11285461025
2	68126	58.52	977.25174361008
2	68145	58.53	977.39063260991
2	68146	58.54	977.52952160974
2	68147	58.55	977.66841060957
2	68166	58.56	977.8072996094
2	68167	58.57	977.94618860923
2	68168	58.58	978.08507760906
2	68169	58.59	978.22396660889
2	68170	58.6	978.36285560872
2	68173	58.61	978.50174460855
2	68174	58.62	978.64063360838
2	68193	58.63	978.77952260821
2	68194	58.64	978.91841160804
2	68195	58.65	979.05730060787
2	68214	58.66	979.1961896077
2	68215	58.67	979.33507860753
2	68216	58.68	979.47396760736
2	68217	58.69	979.6128566072
2	68218	58.7	979.75174560703
2	68221	58.71	979.89063460686
2	68222	58.72	980.0295236067
2	68241	58.73	980.16841260653
2	68242	58.74	980.30730160636
2	68243	58.75	980.4461906062
2	68262	58.76	980.58507960603
2	68263	58.77	980.72396860587
2	68264	58.78	980.8628576057
2	68265	58.79	981.00174660554
2	68266	58.8	981.14063560537
2	68269	58.81	981.27952460521
2	68270	58.82	981.41841360504
2	68289	58.83	981.55730260488
2	68290	58.84	981.69619160471
2	68291	58.85	981.83508060455
2	68310	58.86	981.97396960439
2	68311	58.87	982.11285860422
2	68312	58.88	982.25174760406
2	68313	58.89	982.3906366039
2	68314	58.9	982.52952560374
2	68317	58.91	982.66841460358
2	68318	58.92	982.80730360341
2	68337	58.93	982.94619260325
2	68338	58.94	983.08508160309
2	68339	58.95	983.22397060293
2	68358	58.96	983.36285960277
2	68359	58.97	983.50174860261
2	68360	58.98	983.64063760245
2	68361	58.99	983.77952660229
2	68364	59	983.91841560213
2	68367	59.01	984.05730460197
2	68368	59.02	984.19619360181
2	68387	59.03	984.33508260165
2	68388	59.04	984.47397160149
2	68389	59.05	984.61286060133
2	68408	59.06	984.75174960118
2	68409	59.07	984.89063860102
2	68410	59.08	985.02952760086
2	68411	59.09	985.1684166007
2	68412	59.1	985.30730560055
2	68415	59.11	985.44619460039
2	68416	59.12	985.58508360023
2	68435	59.13	985.72397260008
2	68436	59.14	985.86286159992
2	68437	59.15	986.00175059976
2	68456	59.16	986.14063959961
2	68457	59.17	986.27952859945
2	68458	59.18	986.4184175993
2	68459	59.19	986.55730659914
2	68460	59.2	986.69619559899
2	68463	59.21	986.83508459883
2	68464	59.22	986.97397359868
2	68483	59.23	987.11286259852
2	68484	59.24	987.25175159837
2	68485	59.25	987.39064059822
2	68504	59.26	987.52952959806
2	68505	59.27	987.66841859791
2	68506	59.28	987.80730759776
2	68507	59.29	987.94619659761
2	68508	59.3	988.08508559745
2	68511	59.31	988.2239745973
2	68512	59.32	988.36286359715
2	68531	59.33	988.501752597
2	68532	59.34	988.64064159685
2	68533	59.35	988.77953059669
2	68552	59.36	988.91841959654
2	68553	59.37	989.05730859639
2	68554	59.38	989.19619759624
2	68555	59.39	989.33508659609
2	68556	59.4	989.47397559594
2	68559	59.41	989.61286459579
2	68560	59.42	989.75175359564
2	68579	59.43	989.89064259549
2	68580	59.44	990.02953159534
2	68581	59.45	990.1684205952
2	68600	59.46	990.30730959505
2	68601	59.47	990.4461985949
2	68602	59.48	990.58508759475
2	68603	59.49	990.7239765946
2	68604	59.5	990.86286559446
2	68607	59.51	991.00175459431
2	68608	59.52	991.14064359416
2	68627	59.53	991.27953259401
2	68628	59.54	991.41842159387
2	68629	59.55	991.55731059372
2	68648	59.56	991.69619959357
2	68649	59.57	991.83508859343
2	68650	59.58	991.97397759328
2	68651	59.59	992.11286659314
2	68652	59.6	992.25175559299
2	68655	59.61	992.39064459285
2	68656	59.62	992.5295335927
2	68675	59.63	992.66842259256
2	68676	59.64	992.80731159241
2	68677	59.65	992.94620059227
2	68696	59.66	993.08508959212
2	68697	59.67	993.22397859198
2	68698	59.68	993.36286759183
2	68699	59.69	993.50175659169
2	68700	59.7	993.64064559155
2	68703	59.71	993.77953459141
2	68704	59.72	993.91842359126
2	68723	59.73	994.05731259112
2	68724	59.74	994.19620159098
2	68725	59.75	994.33509059084
2	68744	59.76	994.47397959069
2	68745	59.77	994.61286859055
2	68746	59.78	994.75175759041
2	68747	59.79	994.89064659027
2	68748	59.8	995.02953559013
2	68751	59.81	995.16842458999
2	68752	59.82	995.30731358985
2	68771	59.83	995.44620258971
2	68772	59.84	995.58509158957
2	68773	59.85	995.72398058943
2	68792	59.86	995.86286958929
2	68793	59.87	996.00175858915
2	68794	59.88	996.14064758901
2	68795	59.89	996.27953658887
2	68796	59.9	996.41842558873
2	68799	59.91	996.55731458859
2	68800	59.92	996.69620358845
2	68819	59.93	996.83509258832
2	68820	59.94	996.97398158818
2	68821	59.95	997.11287058804
2	68840	59.96	997.2517595879
2	68841	59.97	997.39064858777
2	68842	59.98	997.52953758763
2	68843	59.99	997.66842658749
2	68846	60	997.80731558736
2	68849	60.01	997.94620458722
2	68850	60.02	998.08509358708
2	68869	60.03	998.22398258695
2	68870	60.04	998.36287158681
2	68871	60.05	998.50176058668
2	68890	60.06	998.64064958654
2	68891	60.07	998.77953858641
2	68892	60.08	998.91842758627
2	68893	60.09	999.05731658614
2	68894	60.1	999.196205586
2	68897	60.11	999.33509458587
2	68898	60.12	999.47398358573
2	68917	60.13	999.6128725856
2	68918	60.14	999.75176158547
2	68919	60.15	999.89065058533
2	68938	60.16	1000.0295395852
2	68939	60.17	1000.1684285851
2	68940	60.18	1000.3073175849
2	68941	60.19	1000.4462065848
2	68942	60.2	1000.5850955847
2	68945	60.21	1000.7239845845
2	68946	60.22	1000.8628735844
2	68965	60.23	1001.0017625843
2	68966	60.24	1001.1406515841
2	68967	60.25	1001.279540584
2	68986	60.26	1001.4184295839
2	68987	60.27	1001.5573185837
2	68988	60.28	1001.6962075836
2	68989	60.29	1001.8350965835
2	68990	60.3	1001.9739855834
2	68993	60.31	1002.1128745832
2	68994	60.32	1002.2517635831
2	69013	60.33	1002.390652583
2	69014	60.34	1002.5295415828
2	69015	60.35	1002.6684305827
2	69034	60.36	1002.8073195826
2	69035	60.37	1002.9462085824
2	69036	60.38	1003.0850975823
2	69037	60.39	1003.2239865822
2	69038	60.4	1003.3628755821
2	69041	60.41	1003.5017645819
2	69042	60.42	1003.6406535818
2	69061	60.43	1003.7795425817
2	69062	60.44	1003.9184315816
2	69063	60.45	1004.0573205814
2	69082	60.46	1004.1962095813
2	69083	60.47	1004.3350985812
2	69084	60.48	1004.473987581
2	69085	60.49	1004.6128765809
2	69086	60.5	1004.7517655808
2	69089	60.51	1004.8906545807
2	69090	60.52	1005.0295435805
2	69109	60.53	1005.1684325804
2	69110	60.54	1005.3073215803
2	69111	60.55	1005.4462105802
2	69130	60.56	1005.58509958
2	69131	60.57	1005.7239885799
2	69132	60.58	1005.8628775798
2	69133	60.59	1006.0017665797
2	69134	60.6	1006.1406555795
2	69137	60.61	1006.2795445794
2	69138	60.62	1006.4184335793
2	69157	60.63	1006.5573225792
2	69158	60.64	1006.696211579
2	69159	60.65	1006.8351005789
2	69178	60.66	1006.9739895788
2	69179	60.67	1007.1128785787
2	69180	60.68	1007.2517675786
2	69181	60.69	1007.3906565784
2	69182	60.7	1007.5295455783
2	69185	60.71	1007.6684345782
2	69186	60.72	1007.8073235781
2	69205	60.73	1007.9462125779
2	69206	60.74	1008.0851015778
2	69207	60.75	1008.2239905777
2	69226	60.76	1008.3628795776
2	69227	60.77	1008.5017685775
2	69228	60.78	1008.6406575773
2	69229	60.79	1008.7795465772
2	69230	60.8	1008.9184355771
2	69233	60.81	1009.057324577
2	69234	60.82	1009.1962135769
2	69253	60.83	1009.3351025767
2	69254	60.84	1009.4739915766
2	69255	60.85	1009.6128805765
2	69274	60.86	1009.7517695764
2	69275	60.87	1009.8906585763
2	69276	60.88	1010.0295475761
2	69277	60.89	1010.168436576
2	69278	60.9	1010.3073255759
2	69281	60.91	1010.4462145758
2	69282	60.92	1010.5851035757
2	69301	60.93	1010.7239925755
2	69302	60.94	1010.8628815754
2	69303	60.95	1011.0017705753
2	69322	60.96	1011.1406595752
2	69323	60.97	1011.2795485751
2	69324	60.98	1011.418437575
2	69325	60.99	1011.5573265748
2	69328	61	1011.6962155747
2	69331	61.01	1011.8351045746
2	69332	61.02	1011.9739935745
2	69351	61.03	1012.1128825744
2	69352	61.04	1012.2517715743
2	69353	61.05	1012.3906605741
2	69372	61.06	1012.529549574
2	69373	61.07	1012.6684385739
2	69374	61.08	1012.8073275738
2	69375	61.09	1012.9462165737
2	69376	61.1	1013.0851055736
2	69379	61.11	1013.2239945734
2	69380	61.12	1013.3628835733
2	69399	61.13	1013.5017725732
2	69400	61.14	1013.6406615731
2	69401	61.15	1013.779550573
2	69420	61.16	1013.9184395729
2	69421	61.17	1014.0573285728
2	69422	61.18	1014.1962175726
2	69423	61.19	1014.3351065725
2	69424	61.2	1014.4739955724
2	69427	61.21	1014.6128845723
2	69428	61.22	1014.7517735722
2	69447	61.23	1014.8906625721
2	69448	61.24	1015.029551572
2	69449	61.25	1015.1684405719
2	69468	61.26	1015.3073295717
2	69469	61.27	1015.4462185716
2	69470	61.28	1015.5851075715
2	69471	61.29	1015.7239965714
2	69472	61.3	1015.8628855713
2	69475	61.31	1016.0017745712
2	69476	61.32	1016.1406660221
2	69487	61.33	1016.2795647778
2	69488	61.34	1016.4184755972
2	69489	61.35	1016.5574031456
2	69490	61.36	1016.6963519969
2	69491	61.37	1016.8353266355
2	69492	61.38	1016.9743314577
2	69493	61.39	1017.1133707735
2	69494	61.4	1017.2524488086
2	69496	61.41	1017.3915697058
2	69497	61.42	1017.5307375265
2	69508	61.43	1017.6699562528
2	69509	61.44	1017.8092297883
2	69510	61.45	1017.9485619604
2	69511	61.46	1018.0879565212
2	69512	61.47	1018.2274171495
2	69513	61.48	1018.3669474518
2	69514	61.49	1018.5065509638
2	69515	61.5	1018.646231152
2	69517	61.51	1018.785991415
2	69518	61.52	1018.9258350845
2	69529	61.53	1019.0657654273
2	69530	61.54	1019.2057856456
2	69531	61.55	1019.3458988793
2	69532	61.56	1019.4861082064
2	69533	61.57	1019.6264166448
2	69534	61.58	1019.766827153
2	69535	61.59	1019.9073426316
2	69536	61.6	1020.0479659244
2	69538	61.61	1020.1886998192
2	69539	61.62	1020.3295470495
2	69550	61.63	1020.4705102949
2	69551	61.64	1020.6115921824
2	69552	61.65	1020.7527952879
2	69553	61.66	1020.8941221364
2	69554	61.67	1021.0355752036
2	69555	61.68	1021.1771569165
2	69556	61.69	1021.3188696547
2	69557	61.7	1021.4607157509
2	69559	61.71	1021.6026974923
2	69560	61.72	1021.7448171211
2	69571	61.73	1021.8870768356
2	69572	61.74	1022.029478791
2	69573	61.75	1022.1720251002
2	69574	61.76	1022.3147178347
2	69575	61.77	1022.4575590254
2	69576	61.78	1022.6005506634
2	69577	61.79	1022.7436947006
2	69578	61.8	1022.8869930508
2	69580	61.81	1023.0304475902
2	69581	61.82	1023.1740601582
2	69592	61.83	1023.3178325583
2	69593	61.84	1023.4617665583
2	69594	61.85	1023.6058638917
2	69595	61.86	1023.7501262577
2	69596	61.87	1023.8945553225
2	69597	61.88	1024.0391527193
2	69598	61.89	1024.1839200495
2	69599	61.9	1024.328858883
2	69601	61.91	1024.473970759
2	69602	61.92	1024.6192571865
2	69613	61.93	1024.7647196448

